newOrleans, grd V1.1 from GOM-mesh_v15.inp
fixed             ! 24 CHARACTER ALPANUMERIC RUN IDENTIFICATION
 1                ! NFOVER - NONFATAL ERROR OVERRIDE OPTION
 1                ! NABOUT - ABREVIATED OUTPUT OPTION PARAMETER
 1                ! NSCREEN - UNIT 6 OUTPUT OPTION PARAMETER
 0                ! IHOT - HOT START PARAMETER
 2                ! ICS - COORDINATE SYSTEM SELECTION PARAMETER
 0                ! IM - MODEL SELECTION PARAMETER
 1                ! NOLIBF - BOTTOM FRICTION TERM SELECTION PARAM
 2                ! NOLIFA - FINITE AMPLITUDE TERM SELECTION PARAMETER
 1                ! NOLICA - SPATIAL DERIVATIVE CONVECTIVE SELECTION PARAMETER
 1                ! NOLICAT - TIME DERIVATIVE CONVECTIVE TERM SELECTION PARAMETER
 1                ! NWP - VARIABLE BOTTOM FRICTION AND LATERAL VISCOSITY OPTION PARAMETER
 1                ! NCOR - VARIABLE CORIOLIS IN SPACE OPTION PARAMETER
 0                ! NTIP - TIDAL POTENTIAL OPTION PARAMETER
 0                ! NWS - WIND STRESS AND BAROMETRIC PRESSURE OPTION PARAMETER
 1                ! NRAMP - RAMP FUNCTION OPTION
 9.81             ! G - ACCELERATION DUE TO GRAVITY - DETERMINES UNITS
 0.05             ! TAU0 - WEIGHTING FACTOR IN GWCE; original, 0.005
 3.0              ! DT - TIME STEP (IN SECONDS)
 0.00             ! STATIM - STARTING TIME (IN DAYS)
 0.00             ! REFTIM - REFERENCE TIME (IN DAYS)
 40.0             ! RNDAY - TOTAL LENGTH OF SIMULATION (IN DAYS)
 10.0              ! DRAMP - DURATION OF RAMP FUNCTION (IN DAYS)
 0.35 0.30 0.35   ! TIME WEIGHTING FACTORS FOR THE GWCE EQUATION
 0.020 10 10 0.05 ! H0, NODEDRYMIN, NODEWETRMP, VELMIN
 -90.0 28.8       ! newOrleans SLAM0,SFEA0 - CENTER OF CPP PROJECTION (NOT USED IF ICS=1, NTIP=0, NCOR=0)
 0.0025 2.0 10.0 0.33333   ! FFACTOR, HBREAK, FTHETA, FGAMMA 
 5.0              ! ESL - LATERAL EDDY VISCOSITY COEFFICIENT; IGNORED IF NWP =1
 0.0              ! CORI - CORIOLIS PARAMETER - IGNORED IF NCOR = 1
 0      ! NUMBER OF TIDAL POTENTIAL CONSTITUENTS BEING FORCED
8  ! NBFR: bnd forcing
M2
   0.000140518902509  1.000  1.000
S2
   0.000145444104333  1.000  1.000
N2
   0.000137879699487  1.000  1.000
K1
   0.000072921158358  1.000  1.000
O1
   0.000067597744151  1.000  1.000
K2
   0.000145842317201  1.000  1.000
Q1
   0.000064958541129  1.000  1.000
M4
   0.000281037805017  1.000  1.000
M2
    0.071669    282.12400
    0.071236    280.44900
    0.068638    278.17000
    0.065123    276.00100
    0.060675    273.65000
    0.056113    271.34600
    0.051505    269.00900
    0.048547    267.37200
    0.046596    266.10600
    0.044799    265.00200
    0.043111    263.97800
    0.041376    262.90600
    0.039524    261.85900
    0.037483    260.78300
    0.035443    259.69400
    0.033424    258.64900
    0.031406    257.55300
    0.029367    256.41700
    0.027318    255.17800
    0.025291    253.92600
    0.023229    252.49900
    0.021173    250.94000
    0.019158    249.21900
    0.017191    247.20800
    0.015330    244.93200
    0.013456    242.06700
    0.011656    238.58500
    0.009908    234.06700
    0.008225    227.39200
    0.006773    218.25900
    0.005577    204.96700
    0.004821    186.34200
    0.004710    163.68000
    0.005343    142.51500
    0.006456    127.98800
    0.007840    118.21800
    0.009418    111.49300
    0.011089    106.75200
    0.012806    103.30300
    0.014518    100.86800
    0.016144     99.07100
    0.017727     97.74100
    0.019197     96.80200
    0.020526     96.14500
    0.021727     95.67700
    0.022814     95.31800
    0.023778     95.06200
    0.024607     94.86500
    0.025281     94.70500
    0.025814     94.53900
    0.026208     94.38900
    0.026474     94.38700
    0.026617     94.37900
    0.026653     94.29800
    0.026622     94.09700
    0.026557     93.74000
    0.026495     93.23300
    0.026444     92.66500
    0.026423     91.97500
    0.026417     91.26200
    0.026478     90.48900
    0.026584     89.68600
    0.026712     88.87300
    0.026863     88.06300
    0.027022     87.28000
    0.027222     86.58400
    0.027483     85.84700
    0.027660     85.15600
    0.027706     84.60500
S2
    0.028102    281.73400
    0.027888    279.87000
    0.026740    277.33800
    0.025203    274.89700
    0.023272    272.20000
    0.021300    269.48900
    0.019317    266.65400
    0.018049    264.61100
    0.017215    263.01200
    0.016446    261.59300
    0.015726    260.24400
    0.014986    258.82100
    0.014197    257.39500
    0.013328    255.88400
    0.012462    254.30300
    0.011604    252.72500
    0.010751    251.01000
    0.009891    249.14300
    0.009033    247.01600
    0.008189    244.69500
    0.007339    241.90300
    0.006502    238.60600
    0.005697    234.63100
    0.004935    229.58800
    0.004248    223.30500
    0.003611    214.72400
    0.003086    203.43900
    0.002712    188.64900
    0.002567    170.28600
    0.002679    152.71100
    0.003004    137.88600
    0.003479    126.62100
    0.004064    118.11600
    0.004740    111.62200
    0.005428    106.99700
    0.006135    103.44600
    0.006876    100.63000
    0.007629     98.36500
    0.008387     96.52900
    0.009134     95.11100
    0.009841     93.98100
    0.010527     93.08800
    0.011165     92.40600
    0.011743     91.88400
    0.012267     91.47300
    0.012743     91.12800
    0.013168     90.84100
    0.013538     90.58000
    0.013845     90.32600
    0.014096     90.04900
    0.014294     89.76000
    0.014447     89.52900
    0.014555     89.25700
    0.014629     88.89500
    0.014684     88.43500
    0.014731     87.87700
    0.014787     87.24000
    0.014846     86.60200
    0.014927     85.90700
    0.015022     85.19200
    0.015162     84.45000
    0.015327     83.72700
    0.015498     83.03400
    0.015676     82.37800
    0.015854     81.75500
    0.016055     81.22200
    0.016302     80.68400
    0.016472     80.19300
    0.016535     79.84000
N2
    0.014552    264.41000
    0.014477    262.67500
    0.013989    260.34800
    0.013324    258.15000
    0.012479    255.78300
    0.011613    253.47200
    0.010738    251.14100
    0.010185    249.44600
    0.009831    248.06800
    0.009507    246.81600
    0.009205    245.61600
    0.008895    244.33700
    0.008562    243.04800
    0.008192    241.67800
    0.007821    240.25500
    0.007454    238.83900
    0.007087    237.33300
    0.006716    235.75300
    0.006345    234.03700
    0.005978    232.27000
    0.005606    230.28500
    0.005236    228.13700
    0.004875    225.80600
    0.004527    223.20200
    0.004202    220.38700
    0.003878    217.10600
    0.003571    213.47900
    0.003277    209.33700
    0.002999    204.13600
    0.002763    198.33300
    0.002559    191.64300
    0.002398    183.99200
    0.002281    175.19200
    0.002221    165.25000
    0.002230    155.56200
    0.002301    146.28600
    0.002433    137.61400
    0.002616    129.97100
    0.002838    123.46200
    0.003091    118.18300
    0.003351    114.02400
    0.003623    110.67300
    0.003889    108.09800
    0.004142    106.14500
    0.004379    104.64700
    0.004600    103.46800
    0.004803    102.56800
    0.004983    101.88000
    0.005137    101.37900
    0.005266    100.99800
    0.005370    100.75400
    0.005458    100.76100
    0.005525    100.85500
    0.005571    100.96300
    0.005602    101.02300
    0.005619    100.97100
    0.005628    100.79500
    0.005632    100.55100
    0.005634    100.20200
    0.005638     99.84100
    0.005652     99.43200
    0.005671     98.99200
    0.005691     98.51900
    0.005710     98.02200
    0.005730     97.53000
    0.005760     97.12100
    0.005799     96.70400
    0.005818     96.24000
    0.005808     95.82500
K1
    0.166040     24.60900
    0.167256     24.35100
    0.168225     23.96200
    0.168709     23.58300
    0.168874     23.17400
    0.168793     22.79300
    0.168501     22.43300
    0.168167     22.14900
    0.167828     21.90100
    0.167451     21.67400
    0.167041     21.46100
    0.166573     21.25100
    0.166055     21.05700
    0.165482     20.87100
    0.164893     20.69600
    0.164291     20.54000
    0.163656     20.39400
    0.162985     20.26100
    0.162284     20.13700
    0.161567     20.03500
    0.160806     19.93600
    0.160041     19.85400
    0.159263     19.78200
    0.158492     19.72000
    0.157738     19.66500
    0.156973     19.61300
    0.156215     19.58100
    0.155460     19.56500
    0.154715     19.51200
    0.153996     19.46600
    0.153275     19.42700
    0.152563     19.38300
    0.151867     19.32600
    0.151167     19.25900
    0.150507     19.17900
    0.149874     19.09600
    0.149255     18.99700
    0.148666     18.89200
    0.148113     18.77600
    0.147618     18.64100
    0.147199     18.49500
    0.146858     18.33500
    0.146626     18.16600
    0.146510     17.99200
    0.146483     17.82400
    0.146533     17.66300
    0.146660     17.51400
    0.146853     17.37700
    0.147109     17.26100
    0.147413     17.16400
    0.147752     17.08700
    0.148122     17.03300
    0.148500     16.99900
    0.148873     16.98200
    0.149209     16.97800
    0.149505     16.98300
    0.149759     16.99300
    0.149968     17.00500
    0.150165     17.02300
    0.150345     17.04400
    0.150517     17.07200
    0.150690     17.10500
    0.150856     17.14700
    0.151025     17.19600
    0.151199     17.25300
    0.151373     17.31700
    0.151572     17.40100
    0.151786     17.48600
    0.151956     17.57200
O1
    0.161507     26.44200
    0.162691     26.32200
    0.163836     26.09400
    0.164585     25.85500
    0.165113     25.57900
    0.165408     25.31500
    0.165505     25.06000
    0.165396     24.84100
    0.165159     24.64100
    0.164854     24.45200
    0.164485     24.27400
    0.164058     24.09800
    0.163580     23.93600
    0.163057     23.77900
    0.162515     23.62700
    0.161942     23.49200
    0.161334     23.36400
    0.160694     23.25000
    0.160026     23.14400
    0.159337     23.05700
    0.158614     22.97500
    0.157894     22.90700
    0.157164     22.84900
    0.156443     22.79700
    0.155726     22.75200
    0.155018     22.71000
    0.154316     22.68600
    0.153636     22.67900
    0.152953     22.63200
    0.152291     22.59000
    0.151621     22.55600
    0.150957     22.51600
    0.150319     22.46200
    0.149684     22.39700
    0.149081     22.32000
    0.148494     22.23900
    0.147934     22.14300
    0.147405     22.04200
    0.146901     21.92800
    0.146458     21.79700
    0.146067     21.65500
    0.145745     21.49600
    0.145520     21.32900
    0.145387     21.15200
    0.145336     20.98100
    0.145343     20.81400
    0.145419     20.65700
    0.145550     20.51200
    0.145734     20.38600
    0.145953     20.27600
    0.146189     20.18300
    0.146430     20.10500
    0.146664     20.04100
    0.146890     19.98900
    0.147090     19.94600
    0.147259     19.91300
    0.147400     19.88800
    0.147515     19.87000
    0.147621     19.85800
    0.147719     19.85200
    0.147816     19.85500
    0.147913     19.86400
    0.148023     19.88200
    0.148152     19.90900
    0.148299     19.94400
    0.148444     19.98800
    0.148620     20.04900
    0.148838     20.11000
    0.149056     20.17800
K2
    0.005355    267.14100
    0.005308    265.16500
    0.005105    262.28100
    0.004833    259.31900
    0.004489    255.85900
    0.004133    252.31600
    0.003775    248.53800
    0.003537    245.74000
    0.003376    243.44900
    0.003226    241.27500
    0.003086    239.06800
    0.002941    236.67700
    0.002788    234.15100
    0.002617    231.28900
    0.002449    228.13100
    0.002285    224.81800
    0.002125    221.08100
    0.001969    216.91400
    0.001822    212.14600
    0.001686    206.82000
    0.001560    200.60300
    0.001451    193.58400
    0.001363    185.80400
    0.001301    177.29700
    0.001268    168.60000
    0.001261    159.52700
    0.001281    150.87300
    0.001323    142.73300
    0.001393    134.86500
    0.001482    128.19800
    0.001586    122.39700
    0.001704    117.37800
    0.001835    112.88400
    0.001979    108.79800
    0.002127    105.44300
    0.002280    102.54300
    0.002441     99.96500
    0.002607     97.69700
    0.002776     95.71300
    0.002945     94.03600
    0.003110     92.63000
    0.003272     91.43100
    0.003427     90.43900
    0.003572     89.61800
    0.003707     88.93300
    0.003832     88.35000
    0.003947     87.85300
    0.004051     87.41100
    0.004142     87.00900
    0.004220     86.61900
    0.004288     86.25500
    0.004349     85.96600
    0.004402     85.67100
    0.004446     85.32800
    0.004486     84.94100
    0.004522     84.50900
    0.004556     84.03700
    0.004586     83.56600
    0.004620     83.05900
    0.004655     82.51900
    0.004701     81.96900
    0.004754     81.45800
    0.004806     80.97700
    0.004858     80.51900
    0.004909     80.07700
    0.004970     79.78400
    0.005047     79.55200
    0.005095     79.24300
    0.005109     78.98000
Q1
    0.032891      9.21000
    0.033161      9.13500
    0.033443      8.95400
    0.033648      8.75500
    0.033815      8.51300
    0.033933      8.28300
    0.034009      8.06200
    0.034022      7.86900
    0.033996      7.69100
    0.033953      7.52200
    0.033895      7.36500
    0.033823      7.21000
    0.033742      7.07000
    0.033651      6.93900
    0.033555      6.81100
    0.033451      6.70000
    0.033339      6.59700
    0.033220      6.51100
    0.033096      6.43200
    0.032965      6.37100
    0.032830      6.31600
    0.032694      6.27500
    0.032556      6.24300
    0.032419      6.21600
    0.032284      6.19800
    0.032149      6.17800
    0.032018      6.18000
    0.031891      6.19300
    0.031762      6.17000
    0.031635      6.15100
    0.031507      6.14000
    0.031381      6.12300
    0.031257      6.09200
    0.031137      6.05100
    0.031021      5.99800
    0.030907      5.94100
    0.030799      5.87100
    0.030699      5.79500
    0.030602      5.70900
    0.030517      5.60400
    0.030441      5.48900
    0.030377      5.35700
    0.030330      5.21600
    0.030299      5.06600
    0.030283      4.92100
    0.030277      4.77800
    0.030284      4.64700
    0.030300      4.52300
    0.030326      4.41700
    0.030357      4.32700
    0.030390      4.25200
    0.030421      4.18600
    0.030449      4.13100
    0.030474      4.08400
    0.030495      4.04300
    0.030511      4.01200
    0.030524      3.98900
    0.030534      3.97300
    0.030543      3.96400
    0.030551      3.95800
    0.030560      3.96000
    0.030570      3.96900
    0.030584      3.98500
    0.030604      4.00900
    0.030629      4.03700
    0.030656      4.07900
    0.030687      4.13600
    0.030729      4.19000
    0.030774      4.24800
M4
    0.002947    115.59500
    0.002905    116.33900
    0.002618    115.04500
    0.002263    111.85600
    0.001862    105.84300
    0.001508     97.24400
    0.001242     85.11700
    0.001111     76.92900
    0.001040     72.48800
    0.000973     68.90500
    0.000915     65.89800
    0.000858     62.78200
    0.000795     59.15700
    0.000724     54.46000
    0.000660     49.11300
    0.000602     43.18100
    0.000552     36.22700
    0.000509     28.24000
    0.000478     19.10300
    0.000457      9.28100
    0.000452    358.56700
    0.000461    347.80800
    0.000484    337.85800
    0.000520    329.35900
    0.000561    322.37900
    0.000613    316.20900
    0.000667    310.91500
    0.000725    306.28400
    0.000794    302.56800
    0.000858    299.63000
    0.000921    297.13600
    0.000985    294.97700
    0.001054    293.05400
    0.001131    291.32100
    0.001201    289.88200
    0.001272    288.61800
    0.001346    287.46900
    0.001422    286.41800
    0.001498    285.47600
    0.001572    284.71100
    0.001640    284.07200
    0.001708    283.57900
    0.001774    283.26000
    0.001838    283.09700
    0.001900    283.04400
    0.001957    283.04100
    0.002012    283.11300
    0.002065    283.24900
    0.002117    283.45600
    0.002169    283.68500
    0.002226    284.04800
    0.002327    284.78000
    0.002450    285.62500
    0.002595    286.54400
    0.002755    287.46900
    0.002920    288.30600
    0.003090    289.07200
    0.003252    289.73200
    0.003428    290.37300
    0.003637    291.05300
    0.003918    291.79400
    0.004227    292.54900
    0.004535    293.20200
    0.004836    293.83700
    0.005148    294.37100
    0.005525    294.91200
    0.006000    295.51900
    0.006298    295.89900
    0.006391    296.24100
 110.0              ! ANGINN : INNER ANGLE THRESHOLD
 0 36.0 37.0 1         ! NOUTE,TOUTSE,TOUTFE,NSPOOLE:ELEV STATION OUTPUT INFO (UNIT  61)
 10
 -95.57467699999999  28.78493700000000
 -94.17994200000000  27.53851300000000
 -92.07623800000000  26.89886500000000
 -90.16581100000001  26.84184600000000
 -88.40792900000000  27.20685000000000
 -87.14753300000000  28.32934100000000
 -86.73256700000000  29.65326500000000
 -90.87327188940093  27.23026315789474
 -90.71198156682027  27.87500000000000
 -90.50460829493088  28.67763157894737
 0 0.0 10.0  8       ! NOUTV,TOUTSV,TOUTFV,NSPOOLV:VEL STATION OUTPUT INFO (UNIT  62)
 0                   ! TOTAL NUMBER OF VELOCITY RECORDING STATIONS
 0 10.0 70.0 120     ! NOUTGE,TOUTSGE,TOUTFGE,NSPOOLGE : GLOBAL ELEVATION OUTPUT INFO (UNIT  63)
 0 25.0 27.0  240   ! NOUTGV,TOUTSGV,TOUTFGV,NSPOOLGV : GLOBAL VELOCITY  OUTPUT INFO (UNIT  64)
 38                 ! NOS std, see EC_CSDL/ADCIRC/Common_files, RPS added O1
STEADY
0.000000000000000   1.000   0.000
M2
0.000140518902509      1.0000        0.0000
S2
0.000145444104333      1.0000        0.0000
N2
0.000137879699487      1.0000        0.0000
K1
0.000072921158358      1.0000        0.0000
M4
0.000281037805017      1.0000        0.0000
O1
0.000067597744151      1.0000        0.0000
P1
0.000072522945975      1.000         0.000
M6
0.000421556708011      1.0000        0.0000
MK3
0.000213440061351      1.0000        0.0000
S4
0.000290888208666      1.0000        0.0000
MN4
0.000278398601995      1.0000        0.0000
NU2
0.000138232903707      1.0000        0.0000
S6
0.000436332312999      1.0000        0.0000
MU2
0.000135593700684      1.0000        0.0000
2N2
0.000135240496464      1.0000        0.0000
OO1
0.000078244573050      1.0000        0.0000
LAM2
0.000142804901311      1.0000        0.0000
S1
0.000072722052166      1.0000        0.0000
M1
0.000070281955336      1.0000        0.0000
J1
0.000075560361380      1.0000        0.0000
MM
0.000002639203022      1.0000        0.0000
SSA
0.000000398212868      1.0000        0.0000
SA
0.000000199106191      1.0000        0.0000
MSF
0.000004925201824      1.0000        0.0000
MF
0.000005323414692      1.0000        0.0000
RHO
0.000065311745349      1.0000        0.0000
Q1
0.000064958541129      1.0000        0.0000
T2
0.000145245007353      1.0000        0.0000
R2
0.000145643201313      1.0000        0.0000
2Q1
0.000062319338107      1.0000        0.0000
2SM2
0.000150369306157      1.0000        0.0000
M3
0.000210778353763      1.0000        0.0000
L2
0.000143158105531      1.0000        0.0000
2MK3
0.000208116646659      1.0000        0.0000
K2
0.000145842317201      1.0000        0.0000
M8
0.000562075609065      1.0000        0.0000
MS4
0.000285963006842      1.0000        0.0000
 10.0  40.0 600  0.0    ! THAS,THAF,NHAINC,FMV - HARMONIC ANALYSIS PARAMETERS
 0 0 1 1                ! NHASE,NHASV,NHAGE,NHAGV - CONTROL HARMONIC ANALYSIS AND OUTPUT TO UNITS 51,52,53,54
 0 86400                ! NHSTAR,NHSINC - HOT START FILE GENERATION PARAMETERS
 1  0  1.E-6  25 0      ! ITITER, ISLDIA, CONVCR, ITMAX, ILUMP - ALGEBRAIC SOLUTION PARAMETERS
 50
