 TEXAS VDatum Project                ! 32 CHARACTER ALPHANUMERIC RUN DESCRIPTION
 TX_v5                          ! 24 CHARACTER ALPHANUMERIC RUN IDENTIFICATION
  1                                        ! NFOVER - NONFATAL ERROR OVERRIDE OPTION
  1                                        ! NABOUT - ABREVIATED OUTPUT OPTION PARAMETER
  1                                        ! NSCREEN - OUTPUT TO UNIT 6 PARAMETER
  0                                        ! IHOT - HOT START OPTION PARAMETER
  2                                        ! ICS - COORDINATE SYSTEM OPTION PARAMETER
  0                                        ! IM - MODEL RUN TYPE: 0=2DDI, 1=3DL(VS), 2=3DL(DSS)
  2                                        ! NOLIBF - NONLINEAR BOTTOM FRICTION OPTION
  2                                        ! NOLIFA - OPTION TO INCLUDE FINITE AMPLITUDE TERMS
  1                                        ! NOLICA - OPTION TO INCLUDE CONVECTIVE ACCELERATION TERMS
  1                                        ! NOLICAT - OPTION TO CONSIDER TIME DERIVATIVE OF CONV ACC TERMS
  0                                        ! NWP - VARIABLE BOTTOM FRICTION AND LATERAL VISCOSITY OPTION PARAMETER
  1                                        ! NCOR - VARIABLE CORIOLIS IN SPACE OPTION PARAMETER
  1                                        ! NTIP - TIDAL POTENTIAL OPTION PARAMETER
  0                                        ! NWS - WIND STRESS AND BAROMETRIC PRESSURE OPTION PARAMETER
  1                                        ! NRAMP - RAMP FUNCTION OPTION
  9.81000                                  ! G - ACCELERATION DUE TO GRAVITY - DETERMINES UNITS
  0.02                                      ! TAU0 - WEIGHTING FACTOR IN GWCE
  3.00000                                  ! DT - TIME STEP (IN SECONDS)
  0.00000                                  ! STATIM - STARTING SIMULATION TIME IN DAYS
  0.00000                                  ! REFTIME - REFERENCE TIME (IN DAYS) FOR NODAL FACTORS AND EQUILIBRIUM ARGS
  40.00000                                 ! RNDAY - TOTAL LENGTH OF SIMULATION (IN DAYS)
  10.00000                                 ! DRAMP - DURATION OF RAMP FUNCTION (IN DAYS)
  0.350000 0.300000 0.350000               ! TIME WEIGHTING FACTORS FOR THE GWCE EQUATION
  0.0500 5 5 0.050000                  ! H0, NODEDRYMIN, NODEWETMIN, VELMIN - MINIMUM WATER DEPTH AND DRYING/WETTING OPTIONS
  -95.5 28.8                             ! SLAM0, SFEA0 - LONGITUDE AND LATITUDE ON WHICH THE CPP COORDINATE PROJECTION IS CENTERED
  0.002 1 10 0.3333                     ! FFACTORMIN, HBREAK, FTHETA, FGAMMA - BOTTOM FRICTION OPTIONS
  5.000000                                 ! ESLM - SPATIALLY CONSTANT HORIZONTAL EDDY VISCOSITY FOR THE MOMENTUM EQUATIONS
  0.0                                      ! CORI - CONSTANT CORIOLIS COEFFICIENT
  8                                        ! NTIF - NUMBER OF TIDAL POTENTIAL CONSTITUENTS
   K1     !ALPAHANUMERIC DESCRIPTION OF TIDAL POTENTIAL CONSTIT.
    0.141565  0.000072921158358  0.736  1.000  0.000
   O1
    0.100514  0.000067597744151  0.695  1.000  0.000
   P1
    0.046843  0.000072522947993  0.706  1.000  0.000  
   Q1
    0.019256  0.000064958541129  0.695  1.000  0.000
   M2
    0.242334  0.000140518902509  0.693  1.000  0.000
   S2
    0.112841  0.000145444104333  0.693  1.000  0.000
   N2
    0.046398  0.000137879699487  0.693  1.000  0.000
   K2
    0.030704  0.000145842317201  0.693  1.000  0.000
   8      ! NBFR - TOTAL NUMBER OF FORCING FREQUENCIES ON OPEN BOUNDARIES
   K1     ! ALPHANUMERIC DATA FOR OPEN OCEAN FORCING
    0.000072921158358   1.000  0.000
   O1
    0.000067597744151   1.000  0.000
   P1
    0.000072522947400   1.000  0.000
   Q1
    0.000064958541129   1.000  0.000
   M2
    0.000140518902509   1.000  0.000
   S2
    0.000145444104333   1.000  0.000
   N2
    0.000137879699487   1.000  0.000
   K2
    0.000145842317201   1.000  0.000
K1
  0.15500000     22.800
  0.15400000     23.400
  0.15400000     23.700
  0.15300000     24.000
  0.15300000     24.200
  0.15200000     24.300
  0.15200000     24.300
  0.15200000     24.300
  0.15200000     24.300
  0.15300000     24.300
  0.15300000     24.300
  0.15300000     24.400
  0.15300000     24.500
  0.15300000     24.600
  0.15300000     24.700
  0.15300000     24.800
  0.15400000     24.900
  0.15400000     25.000
  0.15400000     25.100
  0.15500000     25.100
  0.15500000     25.200
  0.15500000     25.100
  0.15500000     25.100
  0.15600000     24.900
  0.15600000     24.800
  0.15600000     24.700
  0.15600000     24.500
  0.15500000     24.300
  0.15500000     24.100
  0.15500000     23.800
  0.15500000     23.400
  0.15500000     22.800
  0.15500000     21.900
  0.15500000     20.900
  0.15500000     20.000
  0.15500000     18.900
  0.15500000     17.900
  0.15500000     17.500
  0.15600000     18.100
  0.15700000     21.100
  0.15800000     25.600
  0.15900000     27.000
  0.16000000     26.600
  0.15700000     26.100
O1
  0.15600000     15.300
  0.15400000     16.900
  0.15200000     16.200
  0.15100000     16.500
  0.15000000     16.900
  0.14900000     17.200
  0.15000000     17.300
  0.15000000     17.300
  0.15000000     17.300
  0.15000000     17.300
  0.15000000     17.400
  0.15100000     17.400
  0.15100000     17.500
  0.15100000     17.500
  0.15100000     17.600
  0.15100000     17.700
  0.15200000     17.700
  0.15200000     17.700
  0.15200000     17.700
  0.15200000     17.700
  0.15300000     17.700
  0.15300000     17.600
  0.15300000     17.600
  0.15300000     17.500
  0.15300000     17.400
  0.15400000     17.200
  0.15400000     16.900
  0.15300000     16.700
  0.15300000     16.400
  0.15300000     16.000
  0.15200000     15.700
  0.15200000     15.300
  0.15100000     14.800
  0.15100000     14.300
  0.15000000     13.900
  0.15100000     13.600
  0.15100000     13.000
  0.15100000     12.500
  0.15200000     12.400
  0.15000000     13.400
  0.14500000     16.100
  0.15000000     16.900
  0.15400000     18.500
  0.15400000     19.600
P1
  0.04600000     29.500
  0.04800000     27.400
  0.04800000     25.100
  0.04900000     23.800
  0.04900000     23.100
  0.05000000     22.600
  0.05000000     22.400
  0.05000000     22.200
  0.05000000     22.100
  0.05000000     22.100
  0.05000000     22.100
  0.05000000     22.200
  0.05000000     22.200
  0.05000000     22.300
  0.05000000     22.400
  0.05100000     22.500
  0.05100000     22.600
  0.05100000     22.700
  0.05100000     22.800
  0.05100000     22.900
  0.05100000     22.900
  0.05100000     22.900
  0.05100000     22.800
  0.05200000     22.700
  0.05200000     22.500
  0.05200000     22.200
  0.05200000     21.800
  0.05200000     21.400
  0.05100000     21.100
  0.05100000     20.800
  0.05100000     20.600
  0.05100000     20.400
  0.05000000     20.100
  0.05000000     20.000
  0.05000000     19.800
  0.04900000     19.300
  0.04900000     17.700
  0.04800000     14.600
  0.04800000      9.000
  0.05000000      2.200
  0.05300000     -3.500
  0.05700000     -3.000
  0.06000000      1.400
  0.06200000      2.600
Q1
  0.03200000    -14.600
  0.03300000     -9.400
  0.03400000     -7.800
  0.03400000     -5.900
  0.03500000     -4.300
  0.03500000     -3.400
  0.03600000     -3.100
  0.03600000     -3.100
  0.03600000     -3.100
  0.03600000     -3.100
  0.03600000     -3.000
  0.03600000     -3.000
  0.03600000     -3.000
  0.03600000     -3.000
  0.03600000     -3.000
  0.03600000     -2.900
  0.03600000     -2.900
  0.03600000     -2.900
  0.03600000     -2.800
  0.03600000     -2.800
  0.03600000     -2.900
  0.03600000     -2.900
  0.03600000     -3.000
  0.03600000     -3.100
  0.03600000     -3.300
  0.03600000     -3.500
  0.03600000     -3.700
  0.03600000     -4.000
  0.03600000     -4.200
  0.03600000     -4.500
  0.03600000     -4.600
  0.03600000     -4.800
  0.03500000     -4.800
  0.03500000     -4.500
  0.03500000     -4.000
  0.03500000     -2.600
  0.03500000     -1.000
  0.03400000      0.500
  0.03300000     -0.700
  0.03200000     -5.000
  0.03200000    -12.700
  0.03400000    -16.600
  0.03500000    -15.400
  0.03600000    -15.600
M2
  0.08600000   -107.500
  0.08400000   -108.100
  0.08200000   -108.500
  0.08100000   -108.800
  0.07900000   -109.100
  0.07700000   -109.400
  0.07600000   -109.700
  0.07500000   -110.000
  0.07400000   -110.400
  0.07300000   -110.700
  0.07100000   -110.900
  0.07000000   -111.100
  0.06800000   -111.200
  0.06700000   -111.200
  0.06600000   -111.200
  0.06400000   -111.000
  0.06300000   -110.800
  0.06200000   -110.600
  0.06200000   -110.400
  0.06100000   -110.300
  0.06000000   -110.300
  0.05900000   -110.500
  0.05800000   -110.800
  0.05700000   -111.500
  0.05500000   -112.300
  0.05300000   -113.700
  0.05000000   -115.500
  0.04700000   -117.700
  0.04400000   -119.900
  0.04100000   -122.700
  0.03800000   -125.400
  0.03500000   -128.600
  0.03200000   -132.800
  0.03000000   -136.200
  0.03100000   -138.600
  0.03300000   -139.900
  0.03700000   -141.400
  0.04300000   -144.200
  0.05100000   -148.000
  0.06100000   -149.000
  0.07100000   -152.900
  0.08100000   -142.600
  0.09000000   -135.000
  0.09200000   -136.000
S2
  0.02100000   -103.900
  0.02200000   -108.300
  0.02300000   -109.700
  0.02300000   -110.800
  0.02300000   -111.600
  0.02300000   -112.200
  0.02300000   -112.700
  0.02300000   -113.200
  0.02300000   -113.700
  0.02200000   -114.100
  0.02200000   -114.500
  0.02100000   -114.800
  0.02000000   -114.900
  0.02000000   -114.900
  0.01900000   -114.900
  0.01900000   -114.800
  0.01800000   -114.600
  0.01800000   -114.400
  0.01800000   -114.200
  0.01700000   -114.200
  0.01700000   -114.400
  0.01600000   -114.800
  0.01600000   -115.500
  0.01500000   -116.800
  0.01400000   -118.200
  0.01300000   -120.500
  0.01200000   -123.300
  0.01100000   -126.700
  0.01100000   -130.200
  0.01000000   -134.800
  0.00900000   -139.600
  0.00800000   -145.400
  0.00700000   -153.300
  0.00700000   -159.900
  0.00700000   -163.900
  0.00800000   -166.800
  0.00800000   -172.200
  0.00800000    174.200
  0.00700000    137.900
  0.01200000     89.700
  0.02200000     76.900
  0.02800000     65.100
  0.03300000     58.900
  0.03500000     59.300
N2
  0.02300000   -118.500
  0.02200000   -119.300
  0.02100000   -119.900
  0.02000000   -120.500
  0.02000000   -121.000
  0.01900000   -121.500
  0.01900000   -121.900
  0.01900000   -122.300
  0.01900000   -122.700
  0.01800000   -123.100
  0.01800000   -123.400
  0.01800000   -123.700
  0.01800000   -124.000
  0.01700000   -124.200
  0.01700000   -124.400
  0.01700000   -124.500
  0.01600000   -124.600
  0.01600000   -124.600
  0.01600000   -124.500
  0.01600000   -124.700
  0.01600000   -125.000
  0.01600000   -125.500
  0.01600000   -126.100
  0.01500000   -127.300
  0.01500000   -128.400
  0.01500000   -130.300
  0.01400000   -132.600
  0.01400000   -135.200
  0.01300000   -137.900
  0.01200000   -141.200
  0.01200000   -144.400
  0.01200000   -148.300
  0.01100000   -153.700
  0.01100000   -159.200
  0.01200000   -165.600
  0.01400000   -173.400
  0.01700000    177.500
  0.02100000    167.300
  0.02700000    158.300
  0.03600000    155.400
  0.04400000    154.100
  0.05200000    161.300
  0.05700000    166.800
  0.05800000    166.600
K2
  0.01100000    -90.500
  0.01100000    -91.900
  0.01100000    -92.900
  0.01100000    -93.800
  0.01100000    -94.700
  0.01100000    -95.500
  0.01000000    -96.000
  0.01000000    -96.300
  0.01000000    -96.600
  0.01000000    -96.800
  0.01000000    -96.800
  0.01000000    -96.800
  0.01000000    -96.800
  0.00900000    -96.600
  0.00900000    -96.300
  0.00900000    -96.000
  0.00900000    -95.600
  0.00900000    -95.100
  0.00900000    -94.800
  0.00900000    -94.600
  0.00900000    -94.500
  0.00900000    -94.600
  0.00900000    -94.900
  0.00900000    -95.500
  0.00800000    -96.200
  0.00800000    -97.100
  0.00800000    -98.200
  0.00700000    -99.000
  0.00700000    -99.600
  0.00700000   -100.300
  0.00700000   -100.700
  0.00600000   -101.100
  0.00600000   -101.400
  0.00600000   -100.900
  0.00500000    -98.100
  0.00500000    -91.000
  0.00500000    -77.300
  0.00600000    -58.100
  0.00800000    -40.600
  0.01000000    -25.900
  0.01100000    -19.600
  0.00700000     -4.100
  0.00300000     33.800
  0.00300000     43.200
  110                                       ! ANGINN - MINIMUM ANGLE FOR TANGENTIAL FLOW
  1 7.0 67.0 120                  ! NOUTE, TOUTSE, TOUTFE, NSPOOLE - FORT 61 OPTIONS
  105                                        ! NSTAE - NUMBER OF ELEVATION RECORDING STATIONS, FOLLOWED BY LOCATIONS ON PROCEEDING LINES
  -93.221700    30.225000 !   8767816  LAKE CHARLES, CALCASIEU 
  -93.343300    29.765000 !   8768094  CALCASIEU PASS, EAST JET
  -93.930000    29.866700 !   8770475  PORT ARTHUR, SABINE NACH
  -93.881700    29.980000 !   8770520  RAINBOW BRIDGE, NECHES R
  -93.895000    29.766700 !   8770539  MESQUITE POINT          
  -94.690000    29.713300 !   8770559  ROUND POINT, TRINITY BAY
  -93.870000    29.730000 !   8770570  SABINE PASS NORTH       
  -93.853300    29.705000 !   8770590  SABINE PASS             
  -94.985000    29.681700 !   8770613  MORGANS POINT, BARBOURS 
  -95.078300    29.765000 !   8770733  LYNCHBURG LANDING, SAN J
  -95.090000    29.756700 !   8770743  BATTLESHIP TEXAS S.P, HO
  -95.251700    29.718300 !   8770777  MANCHESTER, HOUSTON SHIP
  -95.066700    29.563300 !   8770933  CLEAR LAKE              
  -94.513300    29.515000 !   8770971  ROLLOVER PASS           
  -94.918300    29.480000 !   8771013  EAGLE POINT, GALVESTON B
  -94.780000    29.365000 !   8771328  PORT BOLIVAR, BOLIVAR RO
  -94.724833    29.357333 !   8771341  GALVESTON BAY ENTRANCE, 
  -94.693300    29.326700 !   8771416  GALVESTON BAY ENTRANCE, 
  -94.793300    29.310000 !   8771450  GALVESTON PIER 21, GALVE
  -94.789400    29.285300 !   8771510  GALVESTON PLEASURE PIER,
  -95.175000    29.041700 !   8772132  CHRISTMAS BAY           
  -95.308300    28.948300 !   8772440  FREEPORT, DOW BARGE CANA
  -95.300000    28.933300 !   8772447  USCG FREEPORT, FREEPORT 
  -96.711700    28.408300 !   8773037  SEADRIFT, SAN ANTONIO BA
  -96.595000    28.640000 !   8773259  PORT LAVACA, LAVACA CAUS
  -96.388300    28.451700 !   8773701  PORT O'CONNOR, MATAGORDA
  -96.461700    28.333300 !   8773963  NORTH MATAGORDA         
  -97.021700    28.118300 !   8774513  COPANO BAY STATE FISHING
  -97.046700    28.021700 !   8774770  ROCKPORT, ARANSAS BAY   
  -97.475000    27.858300 !   8775188  WHITE POINT BAY         
  -97.073300    27.838300 !   8775237  PORT ARANSAS            
  -97.050000    27.826700 !   8775270  PORT ARANSAS, H. CALDWEL
  -97.203300    27.821700 !   8775283  PORT INGLESIDE, CORPUS C
  -97.390000    27.811700 !   8775296  TEXAS STATE AQUARIUM, CO
  -97.280000    27.705000 !   8775421  CORPUS CHRISTI NAVAL AIR
  -97.236700    27.633300 !   8775792  PACKERY CHANNEL         
  -97.216700    27.580000 !   8775870  CORPUS CHRISTI, GULF OF 
  -97.321700    27.480000 !   8776139  BIRD ISLAND             
  -97.405000    27.295000 !   8776604  BAFFIN BAY              
  -97.433300    27.166700 !   8776687  YARBROUGH PASS          
  -97.491700    26.825000 !   8777812  RINCON DEL SAN JOSE     
  -97.430000    26.565000 !   8778490  PORT MANSFIELD          
  -97.365000    26.348300 !   8779038  ARROYO COLORADO         
  -97.170000    26.078300 !   8779724  QUEEN ISABELLA CAUSEWAY,
  -97.191700    26.071700 !   8779739  W QUEEN ISABELLA CAUSEWA
  -97.176700    26.076700 !   8779748  SOUTH PADRE ISLAND C.G. 
  -97.156700    26.068300 !   8779750  PADRE ISLAND, BRAZOS SAN
  -97.181700    26.051700 !   8779768  SOUTH BAY               
  -97.215000    26.060000 !   8779770  PORT ISABEL, LAGUNA MADR
  -97.401700    25.951700 !   8779977  PORT OF BROWNSVILLE     
  -97.387600    27.794700 !   87753511  Lawrence St. T-Head      
  -97.203300    28.066700 !   87746521  Bayside                  
  -95.653300    28.761700 !   87730011  East Matagorda Bay       
  -96.231700    28.696700 !   87731561  Palacios                 
  -96.978300    28.126700 !   87745221  Goose Island             
  -96.928000    28.202300 !   CBI90037   Indian Head Point        
  -96.799000    28.231500 !   CBI90038   False Live Oak           
  -95.454600    28.877800 !   87726891  San Bernard Rivers End   
  -95.555300    28.949800 !   CBI90050   Churchill - San Bernard   
  -95.970000    28.623300 !   87733041  Rawlings                 
  -93.837220    29.678330 !   87708221  Texas Point              
  -97.520900    27.846230 !   87752221  Viola Turning Basin      
  -95.125000    29.166700 !   87718011  Alligator Point          
  -94.385000    29.538300 !   87709231  High Island              
  -94.090000    30.095000 !   87705951  Beaumont                 
  -93.717200    30.084800 !   87705971  Orange                   
  -95.206700    29.211700 !   87717081  Chocolate Bayou          
  -95.281700    29.090000 !   87719841  Bastrop Bayou            
  -95.122570    29.075700 !   87719721  San Luis Pass            
  -94.831830    29.740500 !   87705571  Point Barrow             
  -95.159600    29.144300 !   87718541  West Bay                 
  -97.280300    27.705600 !   87754211  Naval Air Station        
  -97.236960    27.634570 !   87757921  Packery Channel          
  -97.203300    27.821700 !   87752831  Ingleside                
  -97.398400    27.814300 !   87752961  Texas State Aquarium     
  -97.072740    27.839750 !   87752371  Port Aransas             
  -97.482800    27.860800 !   87751881  White Point              
  -97.216460    27.581020 !   87758701  Bob Hall Pier            
  -97.047800    28.024300 !   87747701  Rockport                 
  -93.870900    29.729800 !   87705701  Sabine Pass              
  -97.215400    26.061200 !   87797701  Port Isabel              
  -94.788300    29.285000 !   87715101  Galveston Pleasure Pier   
  -94.786700    29.313300 !   87714501  Galveston Pier 21        
  -97.181700    26.043300 !   87797681  South Bay                
  -96.712200    28.407300 !   87730371  Seadrift                 
  -96.609700    28.640400 !   87732591  Port Lavaca              
  -97.024200    28.114500 !   87745131  Copano Bay               
  -97.167100    26.072600 !   87797481  S. Padre Island Coast Guard Sta.   
  -95.308300    28.946700 !   87724401  Freeport                 
  -96.396070    28.446030 !   87737011  Port O'Connor            
  -95.302500    28.943310 !   87724471  USCG Freeport            
  -95.175000    29.041700 !   87721321  Christmas Bay            
  -95.066700    29.563300 !   87709331  Clear Lake               
  -94.984664    29.681969 !   87706131  Morgans Point            
  -93.880000    29.980000 !   87705201  Rainbow Bridge           
  -94.706700    29.738300 !   87705591  Round Point              
  -93.895000    29.766700 !   87705391  Mesquite Point           
  -94.917210    29.481310 !   87710131  Eagle Point              
  -95.265000    29.723300 !   87707771  Manchester Houston       
  -95.078300    29.765000 !   87707331  Lynchburg                
  -94.513300    29.515000 !   87709711  Rollover Pass            
  -94.691700    29.326700 !   87714161  "Galveston Entrance Channel, South Jetty   "
  -93.931000    29.867200 !   87704751  Port Arthur              
  -94.725978    29.358201 !   87713411  "Galveston Entrance Channel, North Jetty   "
  -95.090300    29.756050 !   87707431  Battleship Texas State Park   
  0 0.000000 10.000000 8                  ! NOUTV, TOUTSV, TOUTFV, NSPOOLV - FORT 62 OPTIONS
  0                                        ! NSTAV - NUMBER OF VELOCITY RECORDING STATIONS, FOLLOWED BY LOCATIONS ON PROCEEDING LINES
  2 7.000000 67.000000 120                 ! NOUTGE, TOUTSGE, TOUTFGE, NOUTGVSPOOLGE - GLOBAL ELEVATION OUTPUT INFO (UNIT 63)
  2 60.00000 67.000000 120                 ! NOUTGV, TOUTSGV, TOUTFGV, NSPOOLGV - GLOBAL VELOCITY OUTPUT INFO (UNIT 64)
   38                                       ! NHARF - NUMBER OF FREQENCIES IN HARMONIC ANALYSIS
   STEADY
   0.000000000000000   1.000   0.000
   MN
   0.000002639203296   1.000   0.000
   SM
   0.000004925202335   1.000   0.000
   K1
   0.000072921158358   1.000   0.000
   O1
   0.000067597744151   1.000   0.000
   P1
   0.000072522945975   1.000   0.000
   Q1
   0.000064958541129   1.000   0.000
   SO1
   0.000077846368256   1.000   0.000
   MNS2
   0.000132954511452   1.000   0.000
   2MS2
   0.000135593714748   1.000   0.000
   N2
   0.000137879699487   1.000   0.000
   M2
   0.000140518902509   1.000   0.000
   2MN2
   0.000143158120379   1.000   0.000
   S2
   0.000145444104333   1.000   0.000
   K2
   0.000145842317201   1.000   0.000
   MSN2
   0.000148083322714   1.000   0.000
   2SM2
   0.000150369321753   1.000   0.000
   MO3
   0.000208116668245   1.000   0.000
   MK3
   0.000213041870580   1.000   0.000
   SK3
   0.000218365285339   1.000   0.000
   N4
   0.000275759427574   1.000   0.000
   3MS4
   0.000276112631831   1.000   0.000
   MN4
   0.000278398630870   1.000   0.000
   M4
   0.000281037834166   1.000   0.000
   3MN4
   0.000283677037462   1.000   0.000
   MS4
   0.000285963036501   1.000   0.000
   2MSN4
   0.000288602239797   1.000   0.000
   2NM6
   0.000416278344658   1.000   0.000
   2MN6
   0.000418917547953   1.000   0.000
   M6
   0.000421556751249   1.000   0.000
   MSN6
   0.000423842750288   1.000   0.000
   2MS6
   0.000426481953584   1.000   0.000
   2SM6
   0.000431407155919   1.000   0.000
   2(MN)8
   0.000556797261741   1.000   0.000
   3MN8
   0.000559436465036   1.000   0.000
   M8
   0.000562075668332   1.000   0.000
   2MSN8
   0.000564361667371   1.000   0.000
   3MS8
   0.000567000870667   1.000   0.000
 10.000000 40.000000 120 0.000000          ! THAS,THAF,NHAINC,FMV - HARMONIC ANALYSIS PARAMETERS
  0 0 1 1                                  ! NHASE,NHASV,NHAGE,NHAGV - CONTROL HARMONIC ANALYSIS AND OUTPUT TO UNITS 51,52,53,54
  1 2592000                                      ! NHSTAR,NHSINC - HOT START FILE GENERATION PARAMETERS
  1 0 0.0000010 50                          ! ITITER, ISLDIA, CONVCR, ITMAX - ALGEBRAIC SOLUTION PARAMETERS
