PR_VI_mr0732_coldstart_00-40d
test             ! 24 CHARACTER ALPANUMERIC RUN IDENTIFICATION
 1                ! NFOVER - NONFATAL ERROR OVERRIDE OPTION
 1                ! NABOUT - ABREVIATED OUTPUT OPTION PARAMETER
 1                ! NSCREEN - UNIT 6 OUTPUT OPTION PARAMETER
 0                ! IHOT - HOT START PARAMETER
 2                ! ICS - COORDINATE SYSTEM SELECTION PARAMETER
 0                ! IM - MODEL SELECTION PARAMETER
 1                ! NOLIBF - BOTTOM FRICTION TERM SELECTION PARAM; before NWP==1, '2' was used
 2                ! NOLIFA - FINITE AMPLITUDE TERM SELECTION PARAMETER
 1                ! NOLICA - SPATIAL DERIVATIVE CONVECTIVE SELECTION PARAMETER
 1                ! NOLICAT - TIME DERIVATIVE CONVECTIVE TERM SELECTION PARAMETER
 0                ! NWP - VARIABLE BOTTOM FRICTION AND LATERAL VISCOSITY OPTION PARAMETER; default 0
 1                ! NCOR - VARIABLE CORIOLIS IN SPACE OPTION PARAMETER
 1                ! NTIP - TIDAL POTENTIAL OPTION PARAMETER
 0                ! NWS - WIND STRESS AND BAROMETRIC PRESSURE OPTION PARAMETER
 1                ! NRAMP - RAMP FUNCTION OPTION
 9.81             ! G - ACCELERATION DUE TO GRAVITY - DETERMINES UNITS
 0.05             ! TAU0 - WEIGHTING FACTOR IN GWCE; original, 0.005
 2.0              ! DT - TIME STEP (IN SECONDS)
 0.00             ! STATIM - STARTING TIME (IN DAYS)
 0.00             ! REFTIM - REFERENCE TIME (IN DAYS)
 40.0             ! RNDAY - TOTAL LENGTH OF SIMULATION (IN DAYS)
 7.0              ! DRAMP - DURATION OF RAMP FUNCTION (IN DAYS)
 0.35 0.30 0.35   ! TIME WEIGHTING FACTORS FOR THE GWCE EQUATION
 0.020 10 10 0.05 ! H0, NODEDRYMIN, NODEWETRMP, VELMIN
 -65.9 18.2       ! SLAM0,SFEA0 - CENTER OF CPP PROJECTION (NOT USED IF ICS=1, NTIP=0, NCOR=0)
 0.0025           ! FFACTOR
 5.0              ! ESL - LATERAL EDDY VISCOSITY COEFFICIENT; IGNORED IF NWP =1
 0.0              ! CORI - CORIOLIS PARAMETER - IGNORED IF NCOR = 1
8      ! NUMBER OF TIDAL POTENTIAL CONSTITUENTS BEING FORCED
 K1     !ALPAHANUMERIC DESCRIPTION OF TIDAL POTENTIAL CONSTIT.
  0.141565  0.000072921158358  0.736  1.000  0.000
 O1
  0.100514  0.000067597744151  0.695  1.000  0.000
 P1
  0.046843  0.000072522945975  0.706  1.000  0.000
 Q1
  0.019256  0.000064958541129  0.695  1.000  0.000
 M2
  0.242334  0.000140518902509  0.693  1.000  0.000
 S2
  0.112841  0.000145444104333  0.693  1.000  0.000
 N2
  0.046398  0.000137879699487  0.693  1.000  0.000
 K2
  0.030704  0.000145842317201  0.693  1.000  0.000
9  ! NBFR: bnd forcing
M2
   0.000140518902509  1.000  0.000
S2
   0.000145444104333  1.000  0.000
N2
   0.000137879699487  1.000  0.000
K2
   0.000145842317201  1.000  0.000
K1
   0.000072921158358  1.000  0.000
O1
   0.000067597744151  1.000  0.000
P1
   0.000072522945975  1.000  0.000
Q1
   0.000064958541129  1.000  0.000
M4
   0.000281037805017  1.000  0.000
m2  
   0.228245      8.866064
   0.228478      8.865688
   0.228734      8.864631
   0.229012      8.862785
   0.229304      8.860209
   0.229644      8.853518
   0.230023      8.842983
   0.230415      8.832010
   0.230820      8.820599
   0.231237      8.808873
   0.231599      8.794843
   0.231924      8.781702
   0.232269      8.772102
   0.232636      8.766775
   0.232796      8.862313
   0.232515      9.161791
   0.232288      9.463188
   0.232126      9.764821
   0.232653     10.097560
   0.233553     10.428154
   0.234388     10.724852
   0.235282     10.919709
   0.236514     10.954186
   0.237776     11.016098
   0.239036     11.082801
   0.240177     11.047756
   0.241315     11.001800
   0.242501     10.892907
   0.243731     10.728406
   0.244947     10.557313
   0.246259     10.358866
   0.247534     10.153419
   0.248764      9.941214
   0.249955      9.723145
   0.251078      9.500226
   0.252165      9.265879
   0.253235      9.027534
   0.254222      8.776228
   0.255149      8.519883
   0.256040      8.251288
   0.256897      7.977878
   0.257684      7.698255
   0.258385      7.402950
   0.259051      7.104336
   0.259620      6.798676
   0.260095      6.484694
   0.260558      6.155364
   0.260915      5.821975
   0.261163      5.481078
   0.261253      5.135885
   0.261215      4.779700
   0.261014      4.411740
   0.260592      4.039427
   0.259917      3.659118
   0.259008      3.266320
   0.257854      2.865032
   0.256499      2.449987
   0.254883      2.019224
   0.252847      1.575054
   0.250641      1.118412
   0.248195      0.639654
   0.245498      0.144537
   0.242344    359.635986
   0.238926    359.104980
   0.235400    358.547729
   0.231572    357.952332
   0.227643    357.336639
   0.223618    356.678467
   0.218075    355.769684
   0.212069    354.776459
   0.205538    353.678833
   0.198960    352.450531
   0.191966    351.075531
   0.184662    349.546631
   0.176950    347.774475
   0.169005    345.766479
   0.160949    343.456970
   0.152847    340.788025
   0.144638    337.644470
   0.136577    333.933350
   0.128893    329.566681
   0.121719    324.354034
   0.115333    318.106018
   0.110419    310.817047
   0.107399    302.549652
   0.106817    293.776062
   0.109075    284.812225
   0.114146    276.156403
   0.122074    268.093842
   0.132315    261.136780
   0.144333    255.210052
   0.158249    250.119476
   0.173152    245.825073
   0.188575    242.206757
   0.204210    239.123428
   0.220098    236.449753
   0.235984    234.148773
   0.252072    232.170349
   0.267778    230.479706
   0.282912    229.066559
   0.297463    227.887238
   0.311126    226.900742
   0.324416    226.064255
   0.336764    225.341660
   0.348525    224.729599
   0.359375    224.202499
   0.369224    223.735672
   0.378325    223.333160
   0.386696    222.967865
   0.394481    222.648575
   0.401577    222.356339
   0.407963    222.090912
   0.413639    221.851257
   0.418765    221.623566
   0.423494    221.408295
   0.428067    221.215317
   0.432577    221.042831
   0.437031    220.940338
   0.442113    220.843964
   0.447428    220.739502
   0.452751    220.631638
   0.458099    220.536865
   0.464431    220.525955
   0.475193    220.660324
   0.493596    220.939514
   0.520551    221.337753
   0.550134    221.857056
   0.581518    222.295670
   0.618120    222.728043
   0.676448    223.318817
   0.727754    223.726425
   0.775224    224.085983
   0.810408    224.642914
   0.044592    136.535294
   0.043892    136.907959
   0.043100    137.292770
   0.042123    137.191223
   0.041135    137.078766
   0.040055    136.881866
   0.038928    136.596222
   0.037767    136.147949
   0.036555    135.531982
   0.035312    134.755920
   0.034123    133.793396
   0.032875    132.668579
   0.031550    131.341980
   0.030194    129.768616
   0.028855    127.902626
   0.027514    125.811714
   0.026263    123.345016
   0.025054    120.519012
   0.023911    117.334900
   0.022860    113.786980
   0.021906    109.893150
   0.021022    105.623413
   0.020257    100.973335
   0.019605     96.195328
   0.019067     91.364967
   0.018703     86.431267
   0.018391     82.093445
   0.017923     78.274124
   0.018472     71.588043
   0.018788     67.263901
   0.017910     65.555809
s2  
   0.037411     37.577572
   0.037211     37.302792
   0.037018     37.022602
   0.036833     36.739277
   0.036663     36.462971
   0.036619     36.278667
   0.036698     36.186905
   0.036780     36.088825
   0.036863     35.983654
   0.036947     35.870670
   0.036991     35.692677
   0.037003     35.462383
   0.037013     35.225159
   0.037022     34.980732
   0.036929     34.722294
   0.036627     34.434055
   0.036323     34.124306
   0.036018     33.790722
   0.035733     33.465794
   0.035471     33.168533
   0.035226     32.889122
   0.035072     32.635281
   0.035100     32.396214
   0.035126     32.156822
   0.035163     31.922411
   0.035266     31.749355
   0.035374     31.564547
   0.035529     31.372725
   0.035728     31.172915
   0.035929     30.958292
   0.036168     30.750946
   0.036404     30.531300
   0.036644     30.301672
   0.036892     30.067438
   0.037140     29.826693
   0.037395     29.586452
   0.037651     29.337599
   0.037914     29.070478
   0.038181     28.796251
   0.038457     28.515547
   0.038741     28.228071
   0.039032     27.933578
   0.039329     27.624708
   0.039633     27.315552
   0.039938     26.996166
   0.040254     26.668524
   0.040572     26.333921
   0.040896     25.987080
   0.041214     25.624641
   0.041544     25.254152
   0.041878     24.874796
   0.042197     24.485641
   0.042500     24.079575
   0.042788     23.661043
   0.043052     23.243702
   0.043305     22.797932
   0.043526     22.332319
   0.043732     21.865086
   0.043899     21.351025
   0.044031     20.826426
   0.044138     20.284685
   0.044238     19.715109
   0.044239     19.101587
   0.044182     18.461077
   0.044115     17.788881
   0.043989     17.060177
   0.043840     16.305830
   0.043675     15.492409
   0.043363     14.335956
   0.042928     13.059970
   0.042353     11.607505
   0.041747     10.012653
   0.041030      8.192610
   0.040210      6.143356
   0.039297      3.781299
   0.038326      1.102246
   0.037337    358.058411
   0.036358    354.610168
   0.035393    350.624329
   0.034503    346.092010
   0.033767    340.983368
   0.033217    335.200012
   0.032933    328.682373
   0.033062    321.583405
   0.033664    314.088776
   0.034816    306.638855
   0.036577    299.351318
   0.038916    292.469391
   0.041873    286.067200
   0.045330    280.461761
   0.049196    275.562012
   0.053571    271.215149
   0.058246    267.452911
   0.063078    264.208923
   0.068021    261.399902
   0.073074    258.927979
   0.078169    256.772186
   0.083348    254.919128
   0.088437    253.303680
   0.093352    251.945770
   0.098081    250.806488
   0.102536    249.852844
   0.106861    249.031433
   0.110904    248.333557
   0.114754    247.732513
   0.118298    247.214676
   0.121527    246.762329
   0.124483    246.360596
   0.127198    246.012833
   0.129710    245.687805
   0.131985    245.398560
   0.134024    245.134186
   0.135821    244.891022
   0.137438    244.662445
   0.138918    244.453690
   0.140335    244.261322
   0.141766    244.101151
   0.143270    243.986923
   0.144986    243.890381
   0.146769    243.785339
   0.148546    243.676361
   0.150332    243.583740
   0.152471    243.568207
   0.156287    243.839874
   0.162809    244.399048
   0.172349    245.196320
   0.182888    246.039703
   0.194182    246.617126
   0.207097    247.037277
   0.226437    247.388367
   0.243557    247.516266
   0.259474    247.564728
   0.271669    247.767227
   0.015293     39.018932
   0.015005     38.408535
   0.014690     37.740078
   0.014542     37.078922
   0.014403     36.319706
   0.014321     35.205826
   0.014270     34.067535
   0.014279     32.945938
   0.014319     31.837675
   0.014379     30.713676
   0.014458     29.583065
   0.014531     28.460484
   0.014611     27.326130
   0.014703     26.203741
   0.014817     25.107880
   0.014970     24.027662
   0.015142     23.023701
   0.015349     22.070461
   0.015580     21.158382
   0.015824     20.279058
   0.016078     19.422842
   0.016348     18.534477
   0.016637     17.690201
   0.016937     16.869719
   0.017248     16.077383
   0.017603     15.379783
   0.017864     14.423308
   0.018058     13.139935
   0.018194     12.935235
   0.018154     12.382222
   0.018140     11.725722
n2  
   0.049408    352.535645
   0.049566    352.377533
   0.049730    352.219452
   0.049899    352.062775
   0.050068    351.912903
   0.050222    351.813965
   0.050359    351.764404
   0.050500    351.712097
   0.050645    351.656647
   0.050796    351.597778
   0.050943    351.512299
   0.051090    351.405457
   0.051245    351.295746
   0.051408    351.183105
   0.051566    351.071136
   0.051707    350.960083
   0.051857    350.839966
   0.052018    350.709656
   0.052270    350.524475
   0.052569    350.310059
   0.052856    350.097504
   0.053143    349.894012
   0.053461    349.704926
   0.053789    349.512604
   0.054116    349.323181
   0.054410    349.143768
   0.054708    348.958252
   0.055011    348.771576
   0.055317    348.583618
   0.055621    348.389404
   0.055936    348.194519
   0.056243    347.994232
   0.056541    347.789001
   0.056835    347.578949
   0.057116    347.363831
   0.057388    347.141693
   0.057651    346.915863
   0.057901    346.682037
   0.058143    346.440582
   0.058373    346.191864
   0.058594    345.936951
   0.058802    345.672791
   0.058997    345.398285
   0.059180    345.118195
   0.059343    344.830200
   0.059490    344.532867
   0.059616    344.231628
   0.059719    343.920959
   0.059792    343.600220
   0.059837    343.278076
   0.059842    342.947021
   0.059800    342.609924
   0.059705    342.263947
   0.059554    341.911499
   0.059339    341.551849
   0.059054    341.182434
   0.058705    340.807770
   0.058289    340.420746
   0.057784    340.019196
   0.057218    339.606934
   0.056587    339.188721
   0.055881    338.754028
   0.055065    338.306427
   0.054178    337.839111
   0.053244    337.356384
   0.052237    336.844543
   0.051203    336.308899
   0.050137    335.737518
   0.048665    334.939972
   0.047091    334.060974
   0.045401    333.074371
   0.043692    331.954254
   0.041899    330.667877
   0.040043    329.192139
   0.038117    327.451294
   0.036166    325.415436
   0.034219    323.022522
   0.032304    320.194000
   0.030413    316.791931
   0.028610    312.743958
   0.026948    307.958221
   0.025466    302.277496
   0.024230    295.546478
   0.023377    287.873352
   0.022979    279.406647
   0.023121    270.702209
   0.023851    262.081024
   0.025132    253.947845
   0.026969    246.485016
   0.029236    240.084747
   0.031844    234.633652
   0.034830    229.939133
   0.038034    225.974136
   0.041347    222.628677
   0.044719    219.788040
   0.048143    217.326416
   0.051556    215.210327
   0.054991    213.373688
   0.058316    211.787048
   0.061498    210.438843
   0.064532    209.290237
   0.067370    208.312469
   0.070112    207.463013
   0.072670    206.734497
   0.075098    206.106766
   0.077348    205.567154
   0.079404    205.100937
   0.081303    204.695404
   0.083068    204.341171
   0.084710    204.026978
   0.086219    203.748001
   0.087588    203.497635
   0.088809    203.269409
   0.089918    203.056305
   0.090940    202.861771
   0.091923    202.673477
   0.092884    202.507706
   0.093843    202.390045
   0.094935    202.294876
   0.096081    202.193771
   0.097231    202.085007
   0.098381    201.982330
   0.099703    201.935333
   0.101962    202.127548
   0.105843    202.534851
   0.111551    203.113022
   0.117797    203.658722
   0.124504    204.017838
   0.132350    204.256485
   0.144796    204.411804
   0.156026    204.419571
   0.166608    204.361008
   0.174776    204.288101
   0.015930    122.889801
   0.015823    122.862366
   0.015697    122.840164
   0.015518    122.652245
   0.015325    122.482994
   0.015073    122.357849
   0.014813    122.155556
   0.014556    121.803062
   0.014289    121.369629
   0.014007    120.859291
   0.013706    120.250885
   0.013371    119.577560
   0.013003    118.842812
   0.012617    118.026268
   0.012230    117.087082
   0.011847    116.023300
   0.011470    114.823807
   0.011101    113.476692
   0.010744    111.984520
   0.010396    110.351601
   0.010050    108.583221
   0.009708    106.718391
   0.009381    104.668114
   0.009080    102.530411
   0.008808    100.328224
   0.008582     98.001511
   0.008363     96.014236
   0.008115     94.393204
   0.008066     92.216118
   0.007923     90.797554
   0.007762     89.906349
k2  
   0.010592     35.927448
   0.010546     35.695450
   0.010501     35.460388
   0.010458     35.224339
   0.010420     34.995808
   0.010417     34.847767
   0.010451     34.778790
   0.010486     34.703678
   0.010521     34.621674
   0.010558     34.531940
   0.010588     34.373455
   0.010614     34.159218
   0.010640     33.937382
   0.010667     33.707432
   0.010679     33.444607
   0.010659     33.113052
   0.010639     32.757442
   0.010620     32.374866
   0.010614     31.906155
   0.010615     31.416391
   0.010617     30.959822
   0.010628     30.564007
   0.010663     30.234009
   0.010703     29.902359
   0.010747     29.582596
   0.010797     29.353226
   0.010848     29.116024
   0.010905     28.890532
   0.010969     28.674782
   0.011034     28.449139
   0.011106     28.232559
   0.011177     28.006432
   0.011249     27.775436
   0.011322     27.544651
   0.011394     27.310041
   0.011466     27.072630
   0.011538     26.829021
   0.011609     26.581219
   0.011681     26.326887
   0.011754     26.065573
   0.011827     25.799475
   0.011900     25.528496
   0.011974     25.245094
   0.012048     24.957106
   0.012121     24.663383
   0.012194     24.360945
   0.012267     24.058521
   0.012340     23.738638
   0.012412     23.404926
   0.012483     23.060743
   0.012552     22.707836
   0.012616     22.347553
   0.012676     21.966011
   0.012728     21.580656
   0.012772     21.176928
   0.012807     20.758455
   0.012835     20.321741
   0.012853     19.869776
   0.012860     19.385603
   0.012856     18.876133
   0.012846     18.348640
   0.012825     17.798107
   0.012779     17.205057
   0.012719     16.572060
   0.012650     15.911317
   0.012564     15.197980
   0.012475     14.444209
   0.012379     13.631833
   0.012228     12.473372
   0.012044     11.182947
   0.011821      9.714703
   0.011593      8.074889
   0.011338      6.197391
   0.011057      4.064635
   0.010754      1.596624
   0.010444    358.778748
   0.010137    355.571381
   0.009845    351.930206
   0.009567    347.730591
   0.009328    342.966705
   0.009144    337.658752
   0.009028    331.719177
   0.009002    325.151764
   0.009102    318.163116
   0.009338    310.966858
   0.009718    303.988342
   0.010255    297.307770
   0.010931    291.078766
   0.011755    285.314636
   0.012695    280.273071
   0.013726    275.842896
   0.014878    271.882874
   0.016095    268.415039
   0.017338    265.387207
   0.018598    262.730408
   0.019872    260.349365
   0.021148    258.236572
   0.022439    256.351776
   0.023706    254.660736
   0.024929    253.183746
   0.026109    251.893860
   0.027224    250.770096
   0.028314    249.765244
   0.029337    248.885223
   0.030314    248.108047
   0.031226    247.426895
   0.032063    246.829132
   0.032837    246.299622
   0.033558    245.822495
   0.034231    245.396164
   0.034851    245.011993
   0.035415    244.667572
   0.035917    244.353699
   0.036375    244.066498
   0.036795    243.807449
   0.037207    243.571976
   0.037622    243.373383
   0.038061    243.235687
   0.038569    243.109421
   0.039100    242.971680
   0.039633    242.828522
   0.040171    242.700378
   0.040812    242.657272
   0.041941    242.886826
   0.043920    243.326447
   0.046859    243.911270
   0.050228    244.412079
   0.053904    244.618408
   0.058251    244.564316
   0.065168    244.051315
   0.071408    243.534424
   0.077339    243.018417
   0.082290    242.487610
   0.004396     31.879892
   0.004304     31.147522
   0.004205     30.349932
   0.004151     29.674139
   0.004100     28.908165
   0.004072     27.828909
   0.004051     26.750036
   0.004046     25.728491
   0.004049     24.718477
   0.004057     23.705856
   0.004072     22.726824
   0.004086     21.753027
   0.004101     20.780640
   0.004119     19.828678
   0.004142     18.906099
   0.004174     18.019936
   0.004212     17.193485
   0.004258     16.417189
   0.004310     15.685801
   0.004366     14.991490
   0.004426     14.318534
   0.004489     13.610945
   0.004559     12.964791
   0.004632     12.328608
   0.004709     11.711897
   0.004797     11.196784
   0.004865     10.384169
   0.004922      9.227607
   0.004943      9.030557
   0.004932      8.516068
   0.004920      8.022449
k1  
   0.084707    210.268372
   0.084684    209.980408
   0.084660    209.687469
   0.084635    209.391510
   0.084609    209.102661
   0.084537    208.909058
   0.084413    208.813934
   0.084287    208.715317
   0.084159    208.612823
   0.084028    208.506348
   0.083916    208.393982
   0.083817    208.275238
   0.083713    208.150970
   0.083604    208.020844
   0.083473    207.861435
   0.083304    207.650162
   0.083135    207.436951
   0.082965    207.222900
   0.082747    207.093277
   0.082495    207.014465
   0.082241    206.930740
   0.082016    206.842499
   0.081860    206.756287
   0.081685    206.672989
   0.081517    206.589218
   0.081363    206.499176
   0.081196    206.403229
   0.081028    206.298813
   0.080859    206.187881
   0.080679    206.072708
   0.080498    205.937088
   0.080307    205.798279
   0.080110    205.653870
   0.079906    205.502441
   0.079691    205.349869
   0.079474    205.193619
   0.079237    205.038727
   0.078986    204.874268
   0.078717    204.706238
   0.078435    204.532883
   0.078137    204.356033
   0.077814    204.173965
   0.077469    203.980896
   0.077109    203.779648
   0.076723    203.586365
   0.076318    203.387970
   0.075878    203.180374
   0.075415    202.972443
   0.074910    202.763016
   0.074386    202.555145
   0.073827    202.352539
   0.073238    202.160843
   0.072609    201.969650
   0.071961    201.811798
   0.071264    201.661377
   0.070540    201.523300
   0.069779    201.420563
   0.068984    201.338043
   0.068157    201.277664
   0.067307    201.246811
   0.066440    201.253494
   0.065562    201.318466
   0.064685    201.434204
   0.063805    201.587189
   0.062929    201.785828
   0.062066    202.029968
   0.061202    202.300934
   0.060362    202.638718
   0.059306    203.135071
   0.058308    203.751633
   0.057371    204.470551
   0.056442    205.239441
   0.055573    206.094177
   0.054773    207.072266
   0.054031    208.131912
   0.053352    209.278229
   0.052748    210.518204
   0.052194    211.813171
   0.051727    213.190094
   0.051335    214.626343
   0.051038    216.126404
   0.050838    217.674591
   0.050766    219.279068
   0.050812    220.924240
   0.050991    222.589279
   0.051326    224.273376
   0.051779    225.933670
   0.052377    227.564636
   0.053083    229.164444
   0.053926    230.714188
   0.054885    232.174347
   0.055939    233.574615
   0.057111    234.891708
   0.058386    236.108734
   0.059735    237.219208
   0.061157    238.228287
   0.062677    239.153275
   0.064212    240.000351
   0.065760    240.730774
   0.067261    241.376541
   0.068690    241.949951
   0.070069    242.454346
   0.071383    242.910889
   0.072648    243.309326
   0.073856    243.669525
   0.075023    243.984650
   0.076144    244.262604
   0.077214    244.503204
   0.078237    244.713974
   0.079216    244.900360
   0.080172    245.068542
   0.081075    245.207123
   0.081952    245.325195
   0.082834    245.431274
   0.083703    245.514496
   0.084623    245.593536
   0.085598    245.644745
   0.086563    245.636932
   0.087486    245.622528
   0.088382    245.626953
   0.089259    245.648224
   0.090130    245.672897
   0.091124    245.696960
   0.092154    245.769623
   0.093383    245.959076
   0.094861    246.283569
   0.096619    246.559128
   0.098231    246.758820
   0.099791    246.982391
   0.101506    247.508835
   0.102922    247.932953
   0.104209    248.295990
   0.105459    248.476303
   0.088712    238.463318
   0.088478    238.316742
   0.088214    238.187256
   0.087886    238.099152
   0.087577    238.012299
   0.087340    237.938293
   0.087076    237.868927
   0.086771    237.811157
   0.086450    237.756073
   0.086102    237.703445
   0.085709    237.657349
   0.085317    237.604263
   0.084903    237.553375
   0.084481    237.503784
   0.084061    237.451340
   0.083605    237.397125
   0.083184    237.355469
   0.082753    237.313354
   0.082324    237.274933
   0.081908    237.240753
   0.081504    237.206894
   0.081104    237.175262
   0.080711    237.145477
   0.080349    237.107605
   0.080022    237.070557
   0.079733    237.059357
   0.079482    236.981262
   0.079311    236.857376
   0.078962    236.843445
   0.078693    236.781769
   0.078403    236.673203
o1  
   0.066348    210.426727
   0.066338    210.196518
   0.066327    209.961975
   0.066316    209.724609
   0.066304    209.492523
   0.066265    209.338425
   0.066199    209.265656
   0.066132    209.190369
   0.066063    209.112320
   0.065994    209.031464
   0.065943    208.945480
   0.065906    208.854385
   0.065865    208.759583
   0.065823    208.660904
   0.065770    208.536484
   0.065701    208.366379
   0.065630    208.198822
   0.065557    208.035492
   0.065438    207.961319
   0.065286    207.938965
   0.065130    207.912048
   0.064987    207.879990
   0.064880    207.847504
   0.064770    207.814896
   0.064671    207.773453
   0.064583    207.719482
   0.064488    207.662125
   0.064390    207.595352
   0.064292    207.519257
   0.064189    207.438736
   0.064091    207.344986
   0.063986    207.248489
   0.063877    207.148560
   0.063767    207.043396
   0.063651    206.935410
   0.063533    206.821381
   0.063406    206.710999
   0.063277    206.594101
   0.063138    206.473602
   0.062986    206.352386
   0.062825    206.229004
   0.062656    206.101959
   0.062471    205.976105
   0.062276    205.845627
   0.062066    205.714630
   0.061846    205.580170
   0.061611    205.452118
   0.061361    205.323166
   0.061093    205.195862
   0.060808    205.074005
   0.060504    204.956207
   0.060186    204.846817
   0.059847    204.750977
   0.059488    204.662979
   0.059114    204.593903
   0.058717    204.541733
   0.058302    204.508408
   0.057868    204.492386
   0.057412    204.501022
   0.056941    204.529129
   0.056450    204.588303
   0.055956    204.679459
   0.055460    204.818375
   0.054961    204.984558
   0.054462    205.184479
   0.053966    205.415039
   0.053471    205.675781
   0.052989    205.968704
   0.052390    206.413574
   0.051832    206.922638
   0.051327    207.511780
   0.050843    208.123291
   0.050409    208.797256
   0.050042    209.540176
   0.049732    210.323975
   0.049486    211.156021
   0.049305    212.024338
   0.049184    212.916473
   0.049127    213.835571
   0.049139    214.766998
   0.049215    215.710373
   0.049376    216.659134
   0.049615    217.609436
   0.049936    218.554352
   0.050347    219.477173
   0.050835    220.377853
   0.051406    221.254715
   0.052050    222.088043
   0.052754    222.889023
   0.053527    223.646896
   0.054359    224.357697
   0.055239    225.035461
   0.056163    225.661972
   0.057133    226.241440
   0.058136    226.778183
   0.059170    227.277481
   0.060239    227.734055
   0.061317    228.167007
   0.062383    228.546844
   0.063405    228.890564
   0.064381    229.204254
   0.065313    229.490585
   0.066200    229.750381
   0.067047    229.988052
   0.067857    230.211182
   0.068631    230.410843
   0.069371    230.594635
   0.070077    230.765823
   0.070748    230.922623
   0.071393    231.068680
   0.072005    231.204208
   0.072591    231.331970
   0.073150    231.449982
   0.073705    231.563629
   0.074255    231.674759
   0.074823    231.792755
   0.075413    231.907288
   0.076022    231.995010
   0.076612    232.068054
   0.077184    232.147827
   0.077742    232.237183
   0.078291    232.330261
   0.078897    232.442123
   0.079575    232.605789
   0.080423    232.898346
   0.081472    233.340851
   0.082701    233.860001
   0.083898    234.292313
   0.085151    234.761810
   0.086782    235.613586
   0.088150    236.289276
   0.089407    236.905518
   0.090580    237.579651
   0.055569    234.328049
   0.055499    234.166611
   0.055419    234.017029
   0.055306    233.917252
   0.055206    233.820862
   0.055162    233.753738
   0.055102    233.696167
   0.055013    233.660950
   0.054911    233.637115
   0.054796    233.619431
   0.054654    233.609406
   0.054518    233.592346
   0.054372    233.571014
   0.054221    233.550354
   0.054073    233.537552
   0.053913    233.534760
   0.053761    233.531982
   0.053602    233.541718
   0.053445    233.560410
   0.053298    233.583115
   0.053154    233.606934
   0.053028    233.634933
   0.052912    233.673889
   0.052816    233.707565
   0.052742    233.742935
   0.052684    233.815765
   0.052654    233.797516
   0.052688    233.711990
   0.052542    233.762665
   0.052467    233.717133
   0.052366    233.600983
p1  
   0.027522    212.693970
   0.027509    212.449738
   0.027496    212.201767
   0.027482    211.951736
   0.027469    211.708313
   0.027447    211.562042
   0.027416    211.516678
   0.027385    211.469116
   0.027354    211.419098
   0.027323    211.366486
   0.027303    211.308136
   0.027294    211.243256
   0.027285    211.173538
   0.027275    211.098480
   0.027271    210.991486
   0.027277    210.824295
   0.027285    210.651337
   0.027295    210.472534
   0.027313    210.293182
   0.027331    210.115005
   0.027341    209.935745
   0.027338    209.755051
   0.027316    209.572891
   0.027288    209.392120
   0.027256    209.211716
   0.027212    209.038879
   0.027165    208.863525
   0.027110    208.689453
   0.027049    208.515472
   0.026984    208.338165
   0.026915    208.154205
   0.026842    207.968826
   0.026766    207.781799
   0.026687    207.591476
   0.026604    207.400146
   0.026517    207.203918
   0.026426    207.008743
   0.026331    206.810959
   0.026231    206.608627
   0.026125    206.402695
   0.026014    206.192963
   0.025897    205.978607
   0.025773    205.761230
   0.025643    205.539154
   0.025507    205.314789
   0.025364    205.084488
   0.025213    204.852692
   0.025055    204.620193
   0.024887    204.388855
   0.024713    204.160187
   0.024528    203.934738
   0.024336    203.715546
   0.024133    203.506073
   0.023921    203.306870
   0.023700    203.126663
   0.023467    202.959717
   0.023225    202.815445
   0.022972    202.688965