FL_grd71_Ed_inv_TP_hotstart.inp
fixed             ! 24 CHARACTER ALPANUMERIC RUN IDENTIFICATION
 1                ! NFOVER - NONFATAL ERROR OVERRIDE OPTION
 1                ! NABOUT - ABREVIATED OUTPUT OPTION PARAMETER
 1                ! NSCREEN - UNIT 6 OUTPUT OPTION PARAMETER
 0                ! IHOT - HOT START PARAMETER
 2                ! ICS - COORDINATE SYSTEM SELECTION PARAMETER
 0                ! IM - MODEL SELECTION PARAMETER
 1                ! NOLIBF - BOTTOM FRICTION TERM SELECTION PARAM; before NWP==1, '2' was used
 2                ! NOLIFA - FINITE AMPLITUDE TERM SELECTION PARAMETER
 1                ! NOLICA - SPATIAL DERIVATIVE CONVECTIVE SELECTION PARAMETER
 1                ! NOLICAT - TIME DERIVATIVE CONVECTIVE TERM SELECTION PARAMETER
 1                ! NWP - VARIABLE BOTTOM FRICTION AND LATERAL VISCOSITY OPTION PARAMETER; default 0
quadratic_friction_coefficient_at_sea_floor
 1                ! NCOR - VARIABLE CORIOLIS IN SPACE OPTION PARAMETER
 1                ! NTIP - TIDAL POTENTIAL OPTION PARAMETER
 0                ! NWS - WIND STRESS AND BAROMETRIC PRESSURE OPTION PARAMETER
 1                ! NRAMP - RAMP FUNCTION OPTION
 9.81             ! G - ACCELERATION DUE TO GRAVITY - DETERMINES UNITS
 0.05             ! TAU0 - WEIGHTING FACTOR IN GWCE; original, 0.005
 2.0              ! DT - TIME STEP (IN SECONDS)
 0.00             ! STATIM - STARTING TIME (IN DAYS)
 0.00             ! REFTIM - REFERENCE TIME (IN DAYS)
 50.0             ! RNDAY - TOTAL LENGTH OF SIMULATION (IN DAYS)
 10.0             ! DRAMP - DURATION OF RAMP FUNCTION (IN DAYS)
 0.35 0.30 0.35   ! TIME WEIGHTING FACTORS FOR THE GWCE EQUATION
 0.020 10 10 0.05 ! H0, NODEDRYMIN, NODEWETRMP, VELMIN
 -79.7 27.2       ! FL, SLAM0,SFEA0 - CENTER OF CPP PROJECTION (NOT USED IF ICS=1, NTIP=0, NCOR=0)
 0.0025 2.0 10.0 0.33333   ! FFACTOR, HBREAK, FTHETA, FGAMMA 
 5.0              ! ESL - LATERAL EDDY VISCOSITY COEFFICIENT; IGNORED IF NWP =1
 0.0              ! CORI - CORIOLIS PARAMETER - IGNORED IF NCOR = 1
8      ! NUMBER OF TIDAL POTENTIAL CONSTITUENTS BEING FORCED
 K1     !ALPAHANUMERIC DESCRIPTION OF TIDAL POTENTIAL CONSTIT.
  0.141565  0.000072921158358  0.736  1.000  0.000
 P1
  0.046843  0.000072522945970  0.706  1.000  0.000
 O1
  0.100514  0.000067597744151  0.695  1.000  0.000
 Q1
  0.019256  0.000064958541129  0.695  1.000  0.000
 M2
  0.242334  0.000140518902509  0.693  1.000  0.000
 S2
  0.112841  0.000145444104333  0.693  1.000  0.000
 N2
  0.046398  0.000137879699487  0.693  1.000  0.000
 K2
  0.030704  0.000145842317201  0.693  1.000  0.000
8  ! NBFR: bnd forcing
M2
   0.000140518902509  1.000  0.000
K1
   0.000072921158358  1.000  0.000
O1
   0.000067597744151  1.000  0.000
N2
   0.000137879699487  1.000  0.000
S2
   0.000145444104333  1.000  0.000
Q1
   0.000064958541129  1.000  0.000
K2
   0.000145842317201  1.000  0.000
P1
   0.000072522945975  1.000  0.000
M2
    0.220368      7.99700
    0.220599      7.86500
    0.220993      7.63500
    0.221932      7.39400
    0.223607      7.16700
    0.225858      6.97500
    0.227962      6.80700
    0.229750      6.59700
    0.230925      6.30200
    0.232140      5.97100
    0.233617      5.64700
    0.235197      5.33300
    0.236959      5.02500
    0.238800      4.72700
    0.240742      4.43300
    0.242726      4.14800
    0.244755      3.86600
    0.246720      3.63700
    0.248860      3.39300
    0.251216      3.13500
    0.253786      2.86300
    0.256602      2.57600
    0.259696      2.27500
    0.263067      1.96000
    0.266737      1.63000
    0.270733      1.28300
    0.275104      0.92200
    0.279906      0.54800
    0.285146      0.15900
    0.290861    359.76300
    0.297065    359.34500
    0.303834    358.93700
    0.310648    358.54600
    0.317446    358.17900
    0.324166    357.82000
    0.330869    357.48100
    0.337480    357.14800
    0.343859    356.82100
    0.350143    356.50100
    0.356144    356.17400
    0.361975    355.85600
    0.367522    355.53100
    0.372888    355.20400
    0.377964    354.86800
    0.382764    354.52200
    0.387332    354.16400
    0.391725    353.79200
    0.395742    353.39300
    0.399137    353.01700
    0.401991    352.65200
    0.404479    352.29400
    0.406554    351.94700
    0.408205    351.61300
    0.409489    351.29200
    0.410813    350.95600
    0.413779    350.49300
    0.423512    349.74100
    0.446868    348.43300
    0.479613    347.41800
    0.508925    346.78200
    0.527586    346.52600
    0.538954    346.34100
    0.027361     84.76600
    0.027196     85.44700
    0.026783     86.41300
    0.026367     87.49300
    0.026042     88.55700
    0.025759     89.62300
    0.025507     90.68100
    0.025350     91.67600
    0.025304     92.53500
    0.025316     93.29300
    0.025400     93.90500
    0.025612     94.28800
    0.026047     94.40900
    0.026548     94.49200
    0.027023     94.27800
    0.027494     93.80400
    0.028022     93.04500
    0.028679     92.05500
    0.029400     90.86000
    0.030389     89.52100
    0.031595     88.04500
    0.032910     86.61300
    0.034388     85.09100
    0.036177     83.56900
    0.038194     82.06500
    0.040439     80.66100
    0.042856     79.37500
    0.045382     78.20000
    0.047485     77.20700
    0.049765     76.26500
    0.051439     75.41400
    0.053180     74.62600
    0.054416     74.15500
    0.055391     73.74200
    0.056226     73.17800
    0.056792     72.54500
    0.056983     72.08900
    0.056977     71.72700
    0.058623     72.55600
K1
    0.084398    205.76900
    0.084024    205.67000
    0.083676    205.56000
    0.083362    205.40700
    0.083103    205.19400
    0.082919    204.91600
    0.082791    204.59900
    0.082696    204.26400
    0.082539    203.96800
    0.082272    203.68100
    0.081964    203.38200
    0.081639    203.07400
    0.081311    202.75400
    0.080988    202.42600
    0.080668    202.08900
    0.080355    201.74600
    0.080046    201.39700
    0.079814    201.08000
    0.079573    200.73300
    0.079317    200.35300
    0.079053    199.93800
    0.078780    199.48400
    0.078502    198.98600
    0.078220    198.44200
    0.077937    197.84700
    0.077657    197.19800
    0.077387    196.48900
    0.077135    195.71800
    0.076903    194.87900
    0.076699    193.97000
    0.076531    192.98900
    0.076487    191.95100
    0.076530    190.93000
    0.076667    189.92900
    0.076896    188.95700
    0.077220    188.01900
    0.077636    187.12200
    0.078145    186.26900
    0.078743    185.46500
    0.079431    184.71500
    0.080201    184.01800
    0.081051    183.37700
    0.081977    182.79300
    0.082973    182.26300
    0.084035    181.78600
    0.085155    181.35800
    0.086330    180.97900
    0.087469    180.60000
    0.088534    180.28200
    0.089537    180.00000
    0.090439    179.76000
    0.091258    179.52400
    0.091995    179.30800
    0.092652    179.10700
    0.093211    178.91900
    0.093643    178.73700
    0.093860    178.60200
    0.094207    178.62300
    0.095221    178.86400
    0.096052    179.11100
    0.096663    179.24000
    0.097272    179.28900
    0.151581     17.66700
    0.151293     17.57700
    0.151007     17.46100
    0.150785     17.35700
    0.150602     17.27400
    0.150434     17.21700
    0.150242     17.17900
    0.150007     17.15700
    0.149716     17.14500
    0.149363     17.13700
    0.148931     17.13100
    0.148406     17.12100
    0.147695     17.11200
    0.146916     17.11700
    0.146052     17.14700
    0.145071     17.20200
    0.143960     17.28100
    0.142690     17.37600
    0.141239     17.49700
    0.139570     17.60600
    0.137626     17.72300
    0.135567     17.83100
    0.133151     17.95800
    0.130392     18.04700
    0.127274     18.08300
    0.123761     18.03000
    0.119891     17.81700
    0.115799     17.40300
    0.111835     16.95900
    0.107458     16.03700
    0.103897     15.12600
    0.100271     13.92500
    0.097179     12.50400
    0.094743     10.76400
    0.092889      8.96500
    0.092116      7.19000
    0.092263      5.48100
    0.093150      4.01700
    0.094707      3.04500
O1
    0.066076    212.08100
    0.065823    212.09900
    0.065605    212.12700
    0.065416    212.11300
    0.065279    212.03700
    0.065217    211.89000
    0.065226    211.69300
    0.065286    211.48500
    0.065282    211.33300
    0.065154    211.18400
    0.064979    211.01500
    0.064781    210.83100
    0.064576    210.63600
    0.064371    210.43000
    0.064165    210.21700
    0.063960    209.99900
    0.063756    209.77500
    0.063595    209.57000
    0.063427    209.34400
    0.063245    209.09600
    0.063055    208.82400
    0.062856    208.52500
    0.062649    208.19600
    0.062433    207.83300
    0.062211    207.43500
    0.061984    206.99700
    0.061753    206.51600
    0.061524    205.98700
    0.061297    205.40700
    0.061075    204.77300
    0.060863    204.08100
    0.060713    203.33700
    0.060614    202.59300
    0.060573    201.85400
    0.060590    201.12400
    0.060667    200.40900
    0.060809    199.71100
    0.061016    199.03700
    0.061287    198.38900
    0.061627    197.77100
    0.062030    197.18700
    0.062497    196.63700
    0.063025    196.12700
    0.063613    195.65300
    0.064258    195.21700
    0.064954    194.81800
    0.065700    194.45600
    0.066435    194.09400
    0.067128    193.78400
    0.067792    193.51500
    0.068393    193.26200
    0.068940    193.02800
    0.069435    192.81100
    0.069872    192.61500
    0.070229    192.44300
    0.070476    192.28100
    0.070560    192.11900
    0.070593    191.98900
    0.071026    192.14800
    0.071500    192.32000
    0.071897    192.39200
    0.072333    192.40100
    0.148776     20.30400
    0.148461     20.24700
    0.148186     20.15800
    0.147986     20.06900
    0.147856     19.99700
    0.147785     19.95300
    0.147729     19.93500
    0.147647     19.95100
    0.147500     19.99100
    0.147296     20.04100
    0.147017     20.09900
    0.146661     20.15300
    0.146152     20.20900
    0.145539     20.26600
    0.144818     20.34300
    0.143989     20.44500
    0.143036     20.57000
    0.141939     20.71000
    0.140687     20.87900
    0.139242     21.03700
    0.137561     21.20300
    0.135787     21.35900
    0.133714     21.53700
    0.131359     21.68300
    0.128705     21.78300
    0.125729     21.81100
    0.122445     21.70500
    0.118971     21.42500
    0.115585     21.12600
    0.111773     20.43500
    0.108642     19.75500
    0.105558     18.83500
    0.102907     17.75200
    0.100777     16.40800
    0.099142     15.01700
    0.098356     13.60700
    0.098332     12.22400
    0.098961     11.02100
    0.100163     10.26700
N2
    0.050404    351.26600
    0.050439    351.17900
    0.050519    350.99600
    0.050728    350.79600
    0.051117    350.59700
    0.051653    350.42100
    0.052169    350.26100
    0.052631    350.06000
    0.052948    349.78500
    0.053245    349.47900
    0.053587    349.17700
    0.053945    348.88300
    0.054343    348.59200
    0.054760    348.31100
    0.055199    348.03200
    0.055648    347.76100
    0.056107    347.49100
    0.056558    347.27300
    0.057050    347.03900
    0.057592    346.79200
    0.058183    346.53100
    0.058833    346.25700
    0.059548    345.96800
    0.060329    345.66500
    0.061180    345.34800
    0.062109    345.01400
    0.063128    344.66800
    0.064249    344.31000
    0.065475    343.93800
    0.066816    343.55600
    0.068275    343.15700
    0.069880    342.76900
    0.071503    342.39900
    0.073132    342.05400
    0.074752    341.71900
    0.076377    341.40700
    0.077990    341.10300
    0.079558    340.81100
    0.081114    340.52700
    0.082611    340.24200
    0.084077    339.97100
    0.085483    339.69700
    0.086853    339.42600
    0.088159    339.15200
    0.089404    338.87300
    0.090597    338.58600
    0.091749    338.29000
    0.092807    337.96700
    0.093708    337.66400
    0.094474    337.36900
    0.095142    337.07600
    0.095705    336.79000
    0.096161    336.51400
    0.096527    336.24500
    0.096893    335.96000
    0.097608    335.55300
    0.099805    334.88300
    0.105084    333.81000
    0.112662    333.24900
    0.119223    332.99000
    0.123302    332.86700
    0.125793    332.74300
    0.005729     95.86800
    0.005709     96.33400
    0.005639     96.97200
    0.005567     97.72900
    0.005508     98.43500
    0.005453     99.10200
    0.005398     99.72400
    0.005359    100.30100
    0.005333    100.74800
    0.005314    101.13200
    0.005301    101.34700
    0.005303    101.29000
    0.005332    100.84100
    0.005378    100.41900
    0.005411     99.80200
    0.005438     98.96900
    0.005470     97.83600
    0.005522     96.39500
    0.005584     94.69600
    0.005699     92.69800
    0.005857     90.43300
    0.006045     88.16900
    0.006269     85.73300
    0.006564     83.20800
    0.006916     80.68200
    0.007328     78.29400
    0.007791     76.12100
    0.008289     74.19700
    0.008710     72.66300
    0.009167     71.31700
    0.009489     70.20600
    0.009853     69.22200
    0.010119     68.80600
    0.010323     68.57000
    0.010477     68.18500
    0.010537     67.74900
    0.010506     67.61000
    0.010423     67.60700
    0.010653     69.02400
S2
    0.037840     33.22900
    0.037963     32.76400
    0.038073     32.13500
    0.038286     31.53600
    0.038599     31.03700
    0.038958     30.67200
    0.039202     30.37800
    0.039281     30.01500
    0.039268     29.44100
    0.039436     28.82400
    0.039752     28.25900
    0.040133     27.73200
    0.040572     27.23700
    0.041034     26.77200
    0.041524     26.32800
    0.042026     25.90400
    0.042540     25.49700
    0.043017     25.17500
    0.043535     24.83700
    0.044106     24.48600
    0.044729     24.12400
    0.045408     23.74900
    0.046154     23.36500
    0.046964     22.97100
    0.047843     22.56800
    0.048798     22.15100
    0.049840     21.73000
    0.050978     21.30700
    0.052217     20.88400
    0.053563     20.46300
    0.055020     20.03700
    0.056552     19.63100
    0.058071     19.24900
    0.059551     18.89400
    0.060980     18.54300
    0.062368     18.20900
    0.063697     17.87100
    0.064927     17.52200
    0.066097     17.17000
    0.067159     16.78500
    0.068138     16.39500
    0.069012     15.97000
    0.069807     15.52800
    0.070496     15.04900
    0.071092     14.53700
    0.071606     13.99100
    0.072053     13.41000
    0.072464     12.80300
    0.072767     12.22000
    0.072984     11.65400
    0.073169     11.10700
    0.073306     10.58300
    0.073386     10.08300
    0.073419      9.60400
    0.073488      9.11800
    0.073881      8.48800
    0.075664      7.55600
    0.080197      6.14800
    0.086751      5.30900
    0.092441      4.85300
    0.095926      4.58700
    0.097985      4.35000
    0.016316     80.06100
    0.016167     80.56700
    0.015829     81.33300
    0.015490     82.22100
    0.015193     83.15200
    0.014907     84.13500
    0.014630     85.14800
    0.014419     86.11900
    0.014277     87.03500
    0.014179     87.89800
    0.014120     88.67300
    0.014122     89.31100
    0.014220     89.81000
    0.014372     90.23000
    0.014531     90.40900
    0.014700     90.35700
    0.014903     90.05000
    0.015163     89.51800
    0.015455     88.77400
    0.015861     87.85600
    0.016358     86.75700
    0.016902     85.62000
    0.017514     84.32900
    0.018260     82.94700
    0.019111     81.48500
    0.020074     80.01200
    0.021141     78.55700
    0.022295     77.15800
    0.023305     75.87100
    0.024493     74.69500
    0.025445     73.87000
    0.026472     72.78400
    0.027394     71.85800
    0.028295     71.08600
    0.029167     70.43700
    0.029918     70.17600
    0.030548     70.15700
    0.031073     70.32100
    0.032682     71.34800
Q1
    0.011127    196.50400
    0.011091    196.50600
    0.011065    196.53600
    0.011045    196.52300
    0.011036    196.44300
    0.011044    196.28000
    0.011069    196.05400
    0.011108    195.81800
    0.011133    195.65700
    0.011131    195.49300
    0.011118    195.30100
    0.011101    195.09000
    0.011081    194.86700
    0.011061    194.63400
    0.011041    194.39600
    0.011021    194.15200
    0.011001    193.90300
    0.010986    193.68400
    0.010970    193.44300
    0.010953    193.18200
    0.010936    192.89600
    0.010919    192.58500
    0.010901    192.24500
    0.010883    191.87300
    0.010865    191.46900
    0.010847    191.03000
    0.010830    190.55100
    0.010814    190.03000
    0.010800    189.46600
    0.010788    188.85500
    0.010778    188.19300
    0.010778    187.49900
    0.010786    186.81400
    0.010802    186.14200
    0.010826    185.48500
    0.010860    184.85100
    0.010902    184.23900
    0.010955    183.65400
    0.011018    183.09900
    0.011092    182.57500
    0.011175    182.08600
    0.011270    181.63200
    0.011374    181.21700
    0.011489    180.83800
    0.011613    180.49400
    0.011746    180.18800
    0.011889    179.91600
    0.012030    179.63400
    0.012163    179.39600
    0.012291    179.19000
    0.012407    178.98800
    0.012513    178.79400
    0.012610    178.60500
    0.012698    178.42300
    0.012772    178.27400
    0.012822    178.16000
    0.012803    178.24400
    0.012769    178.72500
    0.012887    179.38000
    0.012953    179.84400
    0.012984    180.04400
    0.013027    180.07900
    0.030724      4.37600
    0.030660      4.32900
    0.030607      4.24800
    0.030567      4.15900
    0.030544      4.08300
    0.030540      4.03100
    0.030543      4.00200
    0.030548      4.00700
    0.030541      4.04500
    0.030523      4.09500
    0.030494      4.15600
    0.030452      4.21400
    0.030385      4.27200
    0.030294      4.32500
    0.030179      4.39600
    0.030042      4.49100
    0.029881      4.60800
    0.029691      4.74500
    0.029473      4.90700
    0.029217      5.06500
    0.028916      5.23000
    0.028597      5.38500
    0.028221      5.56000
    0.027792      5.70900
    0.027306      5.81500
    0.026760      5.85600
    0.026154      5.77600
    0.025511      5.53400
    0.024880      5.27800
    0.024162      4.67400
    0.023569      4.08100
    0.022996      3.27600
    0.022503      2.33500
    0.022105      1.17100
    0.021802    359.96600
    0.021654    358.73100
    0.021650    357.51200
    0.021774    356.44700
    0.022009    355.89700
K2
    0.008914     46.60700
    0.008924     46.09900
    0.008921     45.45800
    0.008945     44.81700
    0.008997     44.28500
    0.009065     43.92200
    0.009110     43.70400
    0.009111     43.51200
    0.009079     43.09900
    0.009092     42.49700
    0.009144     41.85400
    0.009215     41.20800
    0.009302     40.56900
    0.009395     39.95000
    0.009497     39.34200
    0.009602     38.75200
    0.009711     38.17700
    0.009814     37.70000
    0.009925     37.19500
    0.010049     36.66600
    0.010186     36.11200
    0.010335     35.53300
    0.010501     34.93200
    0.010682     34.30800
    0.010880     33.66200
    0.011096     32.99000
    0.011334     32.29900
    0.011595     31.59400
    0.011881     30.87600
    0.012195     30.15000
    0.012536     29.40900
    0.012895     28.68800
    0.013251     28.01100
    0.013599     27.38100
    0.013935     26.77600
    0.014259     26.20700
    0.014569     25.65200
    0.014854     25.10700
    0.015123     24.57400
    0.015365     24.02700
    0.015585     23.48900
    0.015778     22.93300
    0.015950     22.37200
    0.016095     21.78700
    0.016216     21.18000
    0.016316     20.55000
    0.016398     19.89300
    0.016475     19.20800
    0.016528     18.56100
    0.016561     17.94000
    0.016590     17.34300
    0.016610     16.77400
    0.016618     16.23300
    0.016617     15.71400
    0.016628     15.15600
    0.016710     14.49000
    0.017123     13.39500
    0.018162     11.89400
    0.019669     10.94200
    0.020991     10.42500
    0.021798     10.16000
    0.022273      9.92900
    0.005036     78.98500
    0.004992     79.26100
    0.004887     79.66400
    0.004784     80.21800
    0.004696     80.87800
    0.004611     81.63900
    0.004525     82.42600
    0.004455     83.19300
    0.004398     83.91000
    0.004352     84.62000
    0.004311     85.27100
    0.004281     85.84300
    0.004266     86.33200
    0.004269     86.79100
    0.004274     87.09600
    0.004280     87.22300
    0.004291     87.13500
    0.004313     86.82400
    0.004339     86.30000
    0.004388     85.54000
    0.004455     84.52800
    0.004532     83.39300
    0.004619     82.01700
    0.004734     80.40400
    0.004870     78.56700
    0.005032     76.57400
    0.005222     74.46800
    0.005439     72.33500
    0.005628     70.34700
    0.005875     68.42400
    0.006086     67.05400
    0.006311     65.23100
    0.006527     63.61000
    0.006754     62.21600
    0.006985     61.08700
    0.007203     60.64500
    0.007402     60.57000
    0.007581     60.82400
    0.008023     62.67600
P1
    0.000532    201.45900
    0.000523    201.95400
    0.000509    202.71200
    0.000499    203.07800
    0.000495    202.89900
    0.000497    202.23200
    0.000505    201.56900
    0.000513    200.91200
    0.000512    200.52100
    0.000507    200.30900
    0.000502    200.36000
    0.000497    200.52900
    0.000492    200.72000
    0.000486    200.94200
    0.000481    201.16800
    0.000475    201.42600
    0.000470    201.71000
    0.000465    201.96300
    0.000459    202.29500
    0.000453    202.64000
    0.000447    203.10300
    0.000439    203.57900
    0.000431    204.17000
    0.000423    204.81000
    0.000414    205.54300
    0.000405    206.28500
    0.000396    207.14000
    0.000387    207.99400
    0.000378    208.80800
    0.000371    209.56700
    0.000364    210.21700
    0.000359    210.64700
    0.000356    211.05900
    0.000356    211.44400
    0.000356    211.83200
    0.000356    212.82300
    0.000358    213.66700
    0.000360    215.01300
    0.000361    216.52600
    0.000363    218.25800
    0.000364    220.03100
    0.000364    221.62700
    0.000363    223.12700
    0.000361    224.46200
    0.000360    225.39800
    0.000357    226.12300
    0.000355    226.57300
    0.000355    226.44100
    0.000356    225.83600
    0.000359    225.13000
    0.000363    224.03300
    0.000368    222.72100
    0.000373    221.44000
    0.000377    220.07900
    0.000380    218.24700
    0.000389    215.08500
    0.000412    210.46900
    0.000444    192.81000
    0.000650    168.41200
    0.000900    165.78800
    0.000714    164.30200
    0.000808    163.77900
    0.005874     66.55900
    0.005885     66.32600
    0.005942     66.18500
    0.005946     66.61300
    0.005926     67.25100
    0.005904     67.84500
    0.005886     68.29200
    0.005867     68.80700
    0.005851     69.00800
    0.005846     69.30000
    0.005846     69.60000
    0.005849     69.88900
    0.005848     70.16200
    0.005840     70.27600
    0.005820     70.44400
    0.005794     70.67000
    0.005759     70.95000
    0.005718     71.25400
    0.005670     71.61300
    0.005615     71.95300
    0.005552     72.29800
    0.005485     72.61500
    0.005407     72.95400
    0.005320     73.24000
    0.005223     73.47900
    0.005114     73.59700
    0.004996     73.56900
    0.004870     73.40300
    0.004746     73.26900
    0.004608     72.77800
    0.004493     72.21300
    0.004391     71.49000
    0.004296     70.63900
    0.004221     69.63500
    0.004166     68.53400
    0.004133     67.38200
    0.004125     66.51300
    0.004154     65.15100
    0.004312     61.74800
 110.0              ! ANGINN : INNER ANGLE THRESHOLD
 0 15.0 60.0 900       ! NOUTE,TOUTSE,TOUTFE,NSPOOLE:ELEV STATION OUTPUT INFO (UNIT  61)
 13
 -86.8141982742   30.3902267817
 -86.9057775622   26.3700078150
 -84.2793924288   22.5038733739
 -84.2833150016   26.4740570419
 -82.5935084903   27.7176711962
 -80.9706106786   30.8998564660
 -79.5134116041   27.0418126785
 -80.5779479653   24.7044480576
 -76.9831544660   34.4493166919
 -76.1304116421   26.8707890792
 -74.0935152946   23.4517078160
 -71.3168054599   21.6456307405
 -71.3253500140   20.4348000311
 0 0.0 10.0  8       ! NOUTV,TOUTSV,TOUTFV,NSPOOLV:VEL STATION OUTPUT INFO (UNIT  62)
 0                   ! TOTAL NUMBER OF VELOCITY RECORDING STATIONS
 0 20.0 120.0  180   ! NOUTGE,TOUTSGE,TOUTFGE,NSPOOLGE : GLOBAL ELEVATION OUTPUT INFO (UNIT  63)
 0 20.0 120.0  900   ! NOUTGV,TOUTSGV,TOUTFGV,NSPOOLGV : GLOBAL VELOCITY  OUTPUT INFO (UNIT  64)
 38
 STEADY
 0.000000000000000   1.000   0.000
 MN
 0.000002639203296   1.000   0.000
 SM
 0.000004925202335   1.000   0.000
 K1
 0.000072921158358   1.000   0.000
 O1
 0.000067597744151   1.000   0.000
 P1
 0.000072522945975   1.000   0.000
 Q1
 0.000064958541129   1.000   0.000
 SO1
 0.000077846368256   1.000   0.000
 MNS2
 0.000132954511452   1.000   0.000
 2MS2
 0.000135593714748   1.000   0.000
 N2
 0.000137879699487   1.000   0.000
 M2
 0.000140518902509   1.000   0.000
 2MN2
 0.000143158120379   1.000   0.000
 S2
 0.000145444104333   1.000   0.000
 K2
 0.000145842317201   1.000   0.000
 MSN2
 0.000148083322714   1.000   0.000
 2SM2
 0.000150369321753   1.000   0.000
 MO3
 0.000208116668245   1.000   0.000
 SO3/MK3
 0.000213041870580   1.000   0.000
 SK3
 0.000218365285339   1.000   0.000
 N4
 0.000275759427574   1.000   0.000
 3MS4
 0.000276112631831   1.000   0.000
 MN4
 0.000278398630870   1.000   0.000
 M4
 0.000281037834166   1.000   0.000
 3MN4
 0.000283677037462   1.000   0.000
 MS4
 0.000285963036501   1.000   0.000
 2MSN4
 0.000288602239797   1.000   0.000
 2NM6
 0.000416278344658   1.000   0.000
 2MN6
 0.000418917547953   1.000   0.000
 M6
 0.000421556751249   1.000   0.000
 MSN6
 0.000423842750288   1.000   0.000
 2MS6
 0.000426481953584   1.000   0.000
 2SM6
 0.000431407155919   1.000   0.000
 2(MN)8
 0.000556797261741   1.000   0.000
 3MN8
 0.000559436465036   1.000   0.000
 M8
 0.000562075668332   1.000   0.000
 2MSN8
 0.000564361667371   1.000   0.000
 3MS8
 0.000567000870667   1.000   0.000
 20.0 50.0 600  0.0    ! THAS,THAF,NHAINC,FMV - HARMONIC ANALYSIS PARAMETERS
 0 0 1 1               ! NHASE,NHASV,NHAGE,NHAGV - CONTROL HARMONIC ANALYSIS AND OUTPUT TO UNITS 51,52,53,54
 1 1728000             ! NHSTAR,NHSINC - HOT START FILE GENERATION PARAMETERS,1728000
 1  0  1.E-6  25 0     ! ITITER, ISLDIA, CONVCR, ITMAX, ILUMP - ALGEBRAIC SOLUTION PARAMETERS
