GOM-mesh_v15.inp
fixed             ! 24 CHARACTER ALPANUMERIC RUN IDENTIFICATION
 1                ! NFOVER - NONFATAL ERROR OVERRIDE OPTION
 0                ! NABOUT - ABREVIATED OUTPUT OPTION PARAMETER
 1                ! NSCREEN - UNIT 6 OUTPUT OPTION PARAMETER
 0                ! IHOT - HOT START PARAMETER
 2                ! ICS - COORDINATE SYSTEM SELECTION PARAMETER
 0                ! IM - MODEL SELECTION PARAMETER
 1                ! NOLIBF - BOTTOM FRICTION TERM SELECTION PARAM
 2                ! NOLIFA - FINITE AMPLITUDE TERM SELECTION PARAMETER
 1                ! NOLICA - SPATIAL DERIVATIVE CONVECTIVE SELECTION PARAMETER
 1                ! NOLICAT - TIME DERIVATIVE CONVECTIVE TERM SELECTION PARAMETER
 1                ! 0                ! NWP - VARIABLE BOTTOM FRICTION AND LATERAL VISCOSITY OPTION PARAMETER
quadratic_friction_coefficient_at_sea_floor
 1                ! NCOR - VARIABLE CORIOLIS IN SPACE OPTION PARAMETER
 0                ! NTIP - TIDAL POTENTIAL OPTION PARAMETER
 0                ! NWS - WIND STRESS AND BAROMETRIC PRESSURE OPTION PARAMETER
 1                ! NRAMP - RAMP FUNCTION OPTION
 9.81             ! G - ACCELERATION DUE TO GRAVITY - DETERMINES UNITS
 0.005            ! TAU0 - WEIGHTING FACTOR IN GWCE
 1.0              ! 1.0s failed at PE0038 for ESL=5   ! DT - TIME STEP (IN SECONDS)
 0.00             ! STATIM - STARTING TIME (IN DAYS)
 0.00             ! REFTIM - REFERENCE TIME (IN DAYS)
 40.0             ! RNDAY - TOTAL LENGTH OF SIMULATION (IN DAYS)
 10.0              ! DRAMP - DURATION OF RAMP FUNCTION (IN DAYS)
 0.35 0.30 0.35   ! TIME WEIGHTING FACTORS FOR THE GWCE EQUATION
 0.020 10 10 0.05   ! H0, NODEDRYMIN, NODEWETRMP, VELMIN
 -67.7 41.5       !235.0 31.0 ! SLAM0,SFEA0 - CENTER OF CPP PROJECTION (NOT USED IF ICS=1, NTIP=0, NCOR=0)
 0.0025 2.0 10.0 0.33333   ! FFACTOR, HBREAK, FTHETA, FGAMMA 
 5.0              !4.0         !5.0                     ! ESL - LATERAL EDDY VISCOSITY COEFFICIENT; IGNORED IF NWP =1
 0.0                     ! CORI - CORIOLIS PARAMETER - IGNORED IF NCOR = 1
 0      ! NUMBER OF TIDAL POTENTIAL CONSTITUENTS BEING FORCED
9  ! NBFR: bnd forcing
M2
   0.000140518902500  1.000  0.000
N2
   0.000137879699500  1.000  0.000
S2
   0.000145444104300  1.000  0.000
K1
   0.000072921158360  1.000  0.000
O1
   0.000067597744150  1.000  0.000
K2
   0.000145842317200  1.000  0.000
Q1
   0.000064958541130  1.000  0.000
P1
   0.000072522945970  1.000  0.000
M4
   0.000281037834200  1.000  0.000
M2
    0.519266    342.98700
    0.521364    343.43900
    0.522583    343.96400
    0.523148    344.47800
    0.523045    344.96800
    0.522272    345.42900
    0.520706    345.86600
    0.518394    346.27500
    0.515271    346.66000
    0.511275    347.01300
    0.506361    347.35000
    0.500520    347.66100
    0.493883    347.92100
    0.486697    348.15900
    0.478925    348.35100
    0.470605    348.51800
    0.462697    348.68500
    0.455734    348.87500
    0.450957    349.08200
    0.448663    349.28300
    0.446837    349.44700
    0.445463    349.59600
    0.444213    349.74700
    0.442932    349.90100
    0.441706    350.05900
    0.440413    350.22000
    0.439039    350.38300
    0.437599    350.54600
    0.436179    350.71200
    0.434640    350.87700
    0.433104    351.04500
    0.431516    351.21700
    0.429906    351.38900
    0.428295    351.56600
    0.426695    351.74900
    0.425082    351.93300
    0.423454    352.12700
    0.421844    352.31500
    0.420294    352.50600
    0.418941    352.68200
    0.417651    352.84900
    0.416460    353.01100
    0.415449    353.15600
    0.414489    353.29500
    0.413650    353.42000
    0.412841    353.53600
    0.412250    353.63400
    0.411689    353.73000
    0.411320    353.81900
    0.411066    353.89800
    0.410993    353.97200
    0.411066    354.04100
    0.411290    354.09800
    0.411697    354.13300
    0.412275    354.14400
    0.413062    354.13500
    0.414000    354.10000
    0.415110    354.03700
    0.416284    353.94100
    0.417490    353.80900
    0.418786    353.64800
    0.420155    353.47000
    0.421603    353.28400
    0.423064    353.08300
    0.424569    352.87500
    0.426133    352.67300
    0.427624    352.48500
    0.429262    352.29000
    0.431066    352.08800
    0.433035    351.89600
    0.435149    351.68500
    0.437422    351.47700
    0.439903    351.26700
    0.442597    351.03800
    0.445870    350.83300
    0.449098    350.58600
    0.453827    350.37600
    0.463685    350.63400
    0.475411    350.81300
    0.485794    350.94400
    0.496055    351.13400
    0.505819    351.23900
    0.515289    351.40400
    0.523256    351.50000
    0.529911    351.55800
    0.535248    351.57000
    0.539102    351.55400
    0.543348    351.51600
    0.548092    351.46900
    0.553177    351.44100
    0.557160    351.33300
    0.560754    351.23600
    0.563596    351.11100
    0.566165    350.97300
    0.568535    350.83900
    0.570704    350.69500
    0.572692    350.54000
    0.574720    350.39400
    0.576518    350.25600
    0.578155    350.08900
    0.579395    349.96400
    0.580411    349.78300
    0.580973    349.67900
    0.581259    349.56800
    0.695736     91.54800
    0.702149     92.42400
    0.705775     93.14700
    0.708570     94.02800
    0.713892     95.30000
    0.715614     96.27400
    0.718541     97.37800
    0.720614     98.33100
    0.722557     99.22800
    0.723395    100.03300
    0.722967    100.80700
    0.723732    101.43900
    0.724446    102.16000
    0.725032    102.84200
    0.727602    103.36300
N2
    0.112444    327.65300
    0.112975    328.04200
    0.113321    328.49800
    0.113522    328.93600
    0.113576    329.34800
    0.113479    329.72500
    0.113204    330.07500
    0.112766    330.39500
    0.112154    330.68800
    0.111362    330.94500
    0.110378    331.18000
    0.109207    331.38100
    0.107881    331.52000
    0.106445    331.63000
    0.104898    331.68900
    0.103241    331.72200
    0.101661    331.77100
    0.100245    331.86000
    0.099263    331.98800
    0.098770    332.12700
    0.098371    332.23400
    0.098062    332.32600
    0.097779    332.41900
    0.097489    332.51300
    0.097206    332.60700
    0.096905    332.70200
    0.096589    332.79500
    0.096261    332.88500
    0.095938    332.97500
    0.095592    333.05900
    0.095250    333.14200
    0.094902    333.22400
    0.094561    333.30200
    0.094223    333.37900
    0.093887    333.45400
    0.093562    333.52400
    0.093221    333.59000
    0.092908    333.64600
    0.092607    333.69500
    0.092356    333.72900
    0.092128    333.75000
    0.091915    333.76100
    0.091766    333.75600
    0.091615    333.74100
    0.091516    333.70900
    0.091446    333.66400
    0.091453    333.60600
    0.091470    333.53800
    0.091537    333.46200
    0.091647    333.37500
    0.091811    333.28100
    0.092020    333.18100
    0.092277    333.06900
    0.092570    332.93500
    0.092900    332.77500
    0.093279    332.60100
    0.093691    332.40500
    0.094141    332.18900
    0.094597    331.94700
    0.095054    331.67600
    0.095533    331.38800
    0.096029    331.09700
    0.096544    330.81600
    0.097058    330.53600
    0.097572    330.26400
    0.098098    330.01400
    0.098583    329.79500
    0.099109    329.57700
    0.099667    329.36300
    0.100257    329.16800
    0.100880    328.96200
    0.101533    328.76800
    0.102228    328.58000
    0.102966    328.37700
    0.103833    328.20100
    0.104688    327.99600
    0.105798    327.81300
    0.108019    327.99100
    0.110716    328.13300
    0.113116    328.23500
    0.115471    328.39000
    0.117713    328.46200
    0.119884    328.60300
    0.121739    328.67700
    0.123312    328.72100
    0.124604    328.73400
    0.125578    328.73300
    0.126616    328.71300
    0.127748    328.68300
    0.128957    328.67200
    0.129917    328.59400
    0.130798    328.52800
    0.131518    328.44000
    0.132174    328.34300
    0.132788    328.24900
    0.133359    328.14800
    0.133895    328.04200
    0.134437    327.94100
    0.134930    327.84400
    0.135386    327.72300
    0.135737    327.63400
    0.136048    327.50600
    0.136237    327.44600
    0.136452    327.38800
    0.134082     70.09500
    0.135139     70.96600
    0.135716     71.70900
    0.136183     72.56400
    0.137050     73.84500
    0.137273     74.85700
    0.137681     75.97600
    0.137965     76.95200
    0.138204     77.84900
    0.138287     78.63500
    0.138142     79.38100
    0.138218     79.98800
    0.138292     80.68700
    0.138363     81.34800
    0.138828     81.85400
S2
    0.108315     11.17200
    0.108708     11.55100
    0.108871     11.98400
    0.108861     12.39300
    0.108678     12.77800
    0.108323     13.13700
    0.107777     13.48500
    0.107046     13.81700
    0.106121     14.14200
    0.104998     14.44400
    0.103683     14.73900
    0.102189     15.01300
    0.100532     15.22900
    0.098773     15.41600
    0.096885     15.53800
    0.094895     15.62400
    0.093015     15.72100
    0.091369     15.86600
    0.090241     16.06000
    0.089712     16.27000
    0.089315     16.44700
    0.089049     16.61100
    0.088844     16.78300
    0.088661     16.96200
    0.088499     17.14800
    0.088334     17.34300
    0.088188     17.54200
    0.088063     17.74600
    0.087975     17.95600
    0.087896     18.16600
    0.087856     18.38100
    0.087842     18.60400
    0.087875     18.82900
    0.087941     19.06000
    0.088042     19.29900
    0.088190     19.54000
    0.088358     19.79200
    0.088589     20.03800
    0.088866     20.28600
    0.089197     20.51300
    0.089561     20.72800
    0.089955     20.93400
    0.090393     21.11700
    0.090851     21.29100
    0.091345     21.44800
    0.091858     21.59800
    0.092396     21.72200
    0.092959     21.84600
    0.093552     21.95400
    0.094161     22.05200
    0.094801     22.14100
    0.095461     22.22400
    0.096139     22.29600
    0.096845     22.34700
    0.097597     22.37900
    0.098359     22.39100
    0.099138     22.38300
    0.099922     22.35400
    0.100706     22.29900
    0.101493     22.21600
    0.102265     22.11200
    0.103009     21.99800
    0.103707     21.88200
    0.104370     21.75700
    0.104995     21.62900
    0.105575     21.51200
    0.106077     21.40500
    0.106592     21.30000
    0.107106     21.19400
    0.107627     21.09900
    0.108154     20.99900
    0.108690     20.90800
    0.109247     20.82200
    0.109832     20.72900
    0.110540     20.69500
    0.111149     20.67600
    0.112209     20.60100
    0.115178     20.75000
    0.118236     21.19100
    0.120995     21.57500
    0.123754     21.96400
    0.126492     22.27100
    0.129021     22.62100
    0.131180     22.91900
    0.132990     23.15500
    0.134445     23.33100
    0.135562     23.46400
    0.136787     23.55500
    0.138138     23.62300
    0.139527     23.70500
    0.140577     23.71700
    0.141518     23.75900
    0.142285     23.76900
    0.142973     23.77100
    0.143610     23.77300
    0.144204     23.76800
    0.144748     23.76000
    0.145289     23.75100
    0.145801     23.75100
    0.146293     23.75600
    0.146656     23.76000
    0.147087     23.76300
    0.147422     23.66500
    0.147452     23.67000
    0.113570    119.63000
    0.114547    120.58800
    0.114959    121.52900
    0.115284    122.55400
    0.116053    123.99600
    0.116285    125.09300
    0.116671    126.30500
    0.116931    127.34700
    0.117095    128.30200
    0.117091    129.13400
    0.116852    129.91600
    0.116866    130.56200
    0.116910    131.30300
    0.116985    131.99500
    0.117420    132.53900
K1
    0.072185    165.58300
    0.072689    165.84900
    0.073178    166.17500
    0.073648    166.49400
    0.074092    166.81400
    0.074516    167.13600
    0.074917    167.45600
    0.075306    167.78400
    0.075668    168.12000
    0.076040    168.46100
    0.076426    168.78100
    0.076823    169.07200
    0.077236    169.36900
    0.077622    169.65100
    0.077948    169.94500
    0.078206    170.23900
    0.078353    170.51100
    0.078385    170.70800
    0.078324    170.83400
    0.078177    170.89200
    0.077970    170.95400
    0.077714    171.00800
    0.077412    171.05900
    0.077074    171.10800
    0.076713    171.15800
    0.076325    171.21700
    0.075894    171.26900
    0.075421    171.31000
    0.074907    171.34300
    0.074358    171.36000
    0.073769    171.36100
    0.073145    171.35200
    0.072488    171.31200
    0.071795    171.25900
    0.071069    171.19800
    0.070316    171.10900
    0.069518    171.02800
    0.068707    170.89800
    0.067863    170.76000
    0.067037    170.58200
    0.066224    170.38500
    0.065410    170.19400
    0.064638    169.94500
    0.063851    169.71300
    0.063113    169.43900
    0.062409    169.14300
    0.061783    168.79200
    0.061157    168.44700
    0.060558    168.07900
    0.059993    167.69200
    0.059464    167.28900
    0.058964    166.87300
    0.058499    166.44100
    0.058029    166.00700
    0.057536    165.57700
    0.057077    165.14400
    0.056622    164.73100
    0.056189    164.34100
    0.055755    163.98300
    0.055313    163.66600
    0.054894    163.39300
    0.054512    163.15000
    0.054189    162.94900
    0.053883    162.80600
    0.053633    162.69500
    0.053386    162.65700
    0.053202    162.66500
    0.053021    162.70600
    0.052841    162.83100
    0.052664    162.97300
    0.052469    163.28100
    0.052218    163.62500
    0.051964    164.14700
    0.051726    164.84500
    0.051170    165.58100
    0.050736    166.49500
    0.049778    167.49300
    0.049492    164.26000
    0.051051    160.59400
    0.052756    157.92200
    0.054512    155.41900
    0.056391    153.45800
    0.058248    151.57300
    0.060399    150.22300
    0.062485    149.31400
    0.064500    148.74500
    0.066315    148.28600
    0.068171    147.69100
    0.070037    146.90300
    0.071966    145.88900
    0.073634    145.12000
    0.075394    144.38300
    0.077210    143.82800
    0.078856    143.35500
    0.080430    142.91500
    0.082054    142.55700
    0.083731    142.26800
    0.085317    141.90800
    0.086976    141.73700
    0.088862    141.29000
    0.090376    141.12700
    0.092748    140.54000
    0.094011    139.56900
    0.094738    138.87400
    0.085495    191.35500
    0.085703    191.63400
    0.085878    191.96500
    0.086097    192.42200
    0.086340    192.98600
    0.086379    193.58300
    0.086419    194.15200
    0.086472    194.72900
    0.086488    195.24900
    0.086537    195.69300
    0.086553    196.09700
    0.086609    196.46000
    0.086709    196.80900
    0.086853    197.17700
    0.087097    197.39400
O1
    0.052743    172.51800
    0.053676    172.51100
    0.054734    172.65500
    0.055776    172.83400
    0.056807    173.04100
    0.057834    173.26400
    0.058858    173.49800
    0.059897    173.75900
    0.060920    174.05800
    0.061958    174.38200
    0.062991    174.70100
    0.064028    175.00500
    0.065095    175.37000
    0.066125    175.75800
    0.067077    176.22000
    0.067938    176.72200
    0.068604    177.23700
    0.068997    177.59900
    0.069109    177.76400
    0.069000    177.66800
    0.068785    177.57600
    0.068512    177.46600
    0.068205    177.35900
    0.067879    177.25800
    0.067535    177.17000
    0.067170    177.10500
    0.066783    177.03800
    0.066372    176.96900
    0.065935    176.89700
    0.065484    176.81400
    0.065005    176.72000
    0.064501    176.62300
    0.063978    176.50400
    0.063429    176.37500
    0.062856    176.24400
    0.062268    176.09500
    0.061641    175.95300
    0.061016    175.77800
    0.060368    175.60000
    0.059743    175.39200
    0.059135    175.17700
    0.058528    174.97300
    0.057967    174.72700
    0.057396    174.50100
    0.056869    174.25200
    0.056379    173.99700
    0.055958    173.70700
    0.055542    173.43500
    0.055156    173.15100
    0.054808    172.86600
    0.054499    172.58100
    0.054223    172.30400
    0.053982    172.03600
    0.053756    171.78400
    0.053539    171.55700
    0.053369    171.35100
    0.053238    171.18500
    0.053160    171.06200
    0.053132    170.97000
    0.053154    170.91600
    0.053256    170.87400
    0.053429    170.86100
    0.053670    170.85300
    0.054011    170.84700
    0.054342    170.83700
    0.054813    170.83100
    0.055255    170.78300
    0.055776    170.75800
    0.056376    170.63000
    0.057015    170.57200
    0.057844    170.31700
    0.058784    170.10100
    0.059909    169.68100
    0.061204    169.01200
    0.063072    168.44100
    0.065137    167.41200
    0.068050    166.35300
    0.064310    168.04700
    0.057923    168.23900
    0.052835    166.60300
    0.048504    164.73200
    0.044719    161.19400
    0.041315    157.29400
    0.038844    151.65100
    0.037451    145.60600
    0.037120    139.42700
    0.037624    134.07300
    0.037902    128.55500
    0.037920    122.73500
    0.038005    116.27100
    0.038362    111.05900
    0.039180    105.97600
    0.040590    101.42800
    0.042077     97.76000
    0.043650     94.52100
    0.045514     91.65000
    0.047601     89.17100
    0.049503     86.78300
    0.051895     85.06900
    0.054196     82.56800
    0.056384     81.46900
    0.059381     78.57500
    0.060439     75.68200
    0.060863     73.73500
    0.072428    208.78100
    0.072589    209.05400
    0.072695    209.29500
    0.072832    209.64600
    0.073034    210.09700
    0.073078    210.60300
    0.073141    211.06800
    0.073206    211.54100
    0.073251    211.94900
    0.073308    212.30500
    0.073341    212.62500
    0.073392    212.93500
    0.073464    213.24200
    0.073545    213.58200
    0.073674    213.77000
K2
    0.024857      8.77000
    0.024888      9.23600
    0.024847      9.82800
    0.024753     10.46000
    0.024623     11.09200
    0.024470     11.68900
    0.024299     12.23600
    0.024118     12.72000
    0.023923     13.13900
    0.023692     13.47500
    0.023408     13.73500
    0.023056     13.90200
    0.022633     13.96400
    0.022156     13.99700
    0.021637     14.03500
    0.021089     14.07600
    0.020592     14.19400
    0.020175     14.39600
    0.019903     14.62700
    0.019780     14.86500
    0.019693     15.06100
    0.019634     15.24000
    0.019594     15.42400
    0.019559     15.61300
    0.019529     15.80900
    0.019499     16.01200
    0.019476     16.21700
    0.019459     16.42400
    0.019453     16.63500
    0.019451     16.84600
    0.019459     17.05700
    0.019476     17.27200
    0.019506     17.48200
    0.019545     17.69400
    0.019592     17.90800
    0.019653     18.11600
    0.019717     18.33100
    0.019800     18.53200
    0.019894     18.72900
    0.020000     18.90200
    0.020115     19.05800
    0.020235     19.20600
    0.020367     19.32800
    0.020500     19.44200
    0.020643     19.53500
    0.020790     19.61800
    0.020942     19.67100
    0.021097     19.72300
    0.021256     19.75700
    0.021417     19.78100
    0.021581     19.79100
    0.021746     19.79100
    0.021912     19.77700
    0.022080     19.74100
    0.022253     19.68600
    0.022424     19.61100
    0.022595     19.51900
    0.022763     19.41000
    0.022928     19.28200
    0.023091     19.13500
    0.023249     18.97500
    0.023399     18.80900
    0.023537     18.64600
    0.023667     18.48200
    0.023789     18.31700
    0.023903     18.17400
    0.024004     18.04600
    0.024109     17.92300
    0.024218     17.80800
    0.024332     17.70500
    0.024457     17.61500
    0.024594     17.53700
    0.024750     17.46900
    0.024933     17.41900
    0.025205     17.38500
    0.025595     17.42900
    0.025795     17.42100
    0.025586     17.27600
    0.026218     17.67600
    0.026799     17.97100
    0.027272     18.33900
    0.027717     18.60400
    0.028137     18.99200
    0.028558     19.24200
    0.028898     19.49700
    0.029145     19.73700
    0.029268     19.87100
    0.029367     19.98700
    0.029460     20.09600
    0.029573     20.28600
    0.029700     20.37200
    0.029844     20.40100
    0.029957     20.41200
    0.030068     20.36900
    0.030188     20.33600
    0.030308     20.28700
    0.030436     20.23800
    0.030576     20.21900
    0.030728     20.15900
    0.030879     19.97000
    0.031001     19.83800
    0.031065     19.49600
    0.030859     19.66300
    0.031096     20.08800
    0.026008    112.40700
    0.026217    113.52700
    0.026648    114.32300
    0.026957    115.37400
    0.027234    116.97200
    0.027304    118.21900
    0.027392    119.59300
    0.027473    120.89000
    0.027571    122.13200
    0.027638    123.23100
    0.027667    124.26400
    0.027734    125.09700
    0.027772    125.95900
    0.027787    126.77300
    0.027911    127.37800
Q1
    0.008722    174.36200
    0.008797    174.11000
    0.008892    173.89700
    0.008987    173.71100
    0.009088    173.54800
    0.009196    173.40600
    0.009307    173.29000
    0.009427    173.21000
    0.009551    173.16600
    0.009683    173.11100
    0.009816    173.01700
    0.009951    172.87700
    0.010095    172.75800
    0.010237    172.66200
    0.010377    172.66200
    0.010512    172.74700
    0.010628    172.94800
    0.010697    173.13600
    0.010721    173.24900
    0.010703    173.18000
    0.010671    173.15200
    0.010629    173.12000
    0.010582    173.09200
    0.010532    173.06500
    0.010480    173.04600
    0.010426    173.04500
    0.010368    173.04100
    0.010307    173.03400
    0.010242    173.02500
    0.010175    173.00600
    0.010103    172.97900
    0.010028    172.95100
    0.009950    172.90400
    0.009868    172.85200
    0.009783    172.80000
    0.009695    172.73300
    0.009603    172.67900
    0.009510    172.59800
    0.009413    172.51900
    0.009319    172.42000
    0.009226    172.31500
    0.009134    172.22300
    0.009047    172.10000
    0.008959    171.99700
    0.008877    171.87700
    0.008798    171.75400
    0.008728    171.60500
    0.008658    171.47200
    0.008592    171.33500
    0.008531    171.20000
    0.008475    171.06700
    0.008423    170.94100
    0.008377    170.82700
    0.008332    170.73200
    0.008290    170.66500
    0.008254    170.61500
    0.008225    170.59600
    0.008203    170.60800
    0.008189    170.64100
    0.008184    170.69600
    0.008189    170.75300
    0.008205    170.81800
    0.008230    170.87500
    0.008269    170.90500
    0.008308    170.94500
    0.008365    170.94400
    0.008417    170.91300
    0.008482    170.88800
    0.008550    170.76700
    0.008631    170.70300
    0.008722    170.44200
    0.008829    170.18500
    0.008945    169.71600
    0.009065    168.99600
    0.009237    168.13300
    0.009402    166.70200
    0.009618    164.81200
    0.009208    166.42000
    0.008379    167.62900
    0.007608    166.97600
    0.006947    165.75700
    0.006272    162.98600
    0.005656    159.72400
    0.005123    154.19300
    0.004768    147.52900
    0.004586    139.98900
    0.004569    132.74300
    0.004531    125.31700
    0.004463    117.44400
    0.004417    108.26100
    0.004452    100.90400
    0.004596     93.73400
    0.004853     87.52400
    0.005135     82.82200
    0.005434     78.87000
    0.005781     75.57600
    0.006168     72.97500
    0.006518     70.50800
    0.006950     68.89200
    0.007382     66.33100
    0.007779     65.25900
    0.008338     62.32400
    0.008561     58.93100
    0.008706     57.01200
    0.011932    209.36900
    0.011959    209.62300
    0.011938    209.64800
    0.011943    209.71900
    0.011962    209.94000
    0.011970    210.25400
    0.011977    210.57500
    0.011982    210.90700
    0.011976    211.22300
    0.011961    211.53800
    0.011937    211.88000
    0.011912    212.21600
    0.011886    212.55900
    0.011866    212.88300
    0.011872    212.97300
P1
    0.003151    166.09300
    0.002921    167.90200
    0.002695    169.97100
    0.002479    172.41200
    0.002271    174.90200
    0.002066    177.26200
    0.001866    179.49400
    0.001668    181.53200
    0.001472    183.12300
    0.001265    184.85700
    0.001058    187.76900
    0.000862    193.16700
    0.000680    200.35100
    0.000533    209.55900
    0.000407    216.79700
    0.000287    219.38400
    0.000174    212.61700
    0.000122    189.86800
    0.000112    175.87700
    0.000115    186.80500
    0.000131    194.17300
    0.000152    200.80300
    0.000175    205.15100
    0.000197    208.44800
    0.000218    210.53400
    0.000238    211.50500
    0.000255    212.16200
    0.000271    212.55800
    0.000285    212.73000
    0.000297    212.81600
    0.000308    212.89500
    0.000317    212.93000
    0.000325    213.10900
    0.000332    213.32800
    0.000336    213.64600
    0.000340    214.06700
    0.000341    214.56300
    0.000342    215.06500
    0.000342    215.49200
    0.000342    215.65700
    0.000340    215.63800
    0.000336    215.45200
    0.000333    214.75000
    0.000327    213.86900
    0.000321    212.62500
    0.000313    210.99000
    0.000306    208.95700
    0.000295    206.72000
    0.000284    204.21500
    0.000271    201.29100
    0.000256    198.22600
    0.000240    194.78100
    0.000222    190.65700
    0.000201    185.71600
    0.000178    179.45000
    0.000154    171.46300
    0.000130    161.03400
    0.000109    146.63100
    0.000094    127.98100
    0.000087    104.95600
    0.000090     81.53700
    0.000102     61.07800
    0.000121     45.87600
    0.000143     33.30700
    0.000165     24.29500
    0.000189     16.38800
    0.000207     10.18100
    0.000230      4.48300
    0.000246    358.71800
    0.000271    352.77500
    0.000283    346.00200
    0.000308    337.60700
    0.000332    327.82100
    0.000362    316.53400
    0.000458    302.63300
    0.000556    286.44900
    0.000828    270.62500
    0.000770    284.93200
    0.000462    288.73700
    0.000303    260.74700
    0.000338    240.63800
    0.000465    212.96700
    0.000614    196.74400
    0.000796    186.96400
    0.000949    180.02000
    0.001092    175.49600
    0.001195    175.90700
    0.001304    174.45800
    0.001430    171.92100
    0.001591    170.19600
    0.001712    167.43100
    0.001815    165.95600
    0.001925    164.77600
    0.002015    163.59200
    0.002118    162.36600
    0.002225    161.25600
    0.002325    160.13700
    0.002425    159.07700
    0.002531    159.50200
    0.002641    159.40600
    0.002751    161.70500
    0.002952    161.74500
    0.003187    160.94500
    0.003240    159.47700
    0.009329    190.29600
    0.009352    190.78600
    0.009290    190.72500
    0.009187    190.56500
    0.009177    190.67500
    0.009141    190.65700
    0.009126    190.64700
    0.009070    190.44600
    0.009010    190.11800
    0.008942    189.88600
    0.008876    189.77700
    0.008797    189.76500
    0.008721    190.10200
    0.008598    190.53900
    0.008485    190.85900
M4
    0.013557    353.17600
    0.013126    352.41300
    0.012716    351.16900
    0.012211    350.01200
    0.011626    348.81000
    0.010960    347.49300
    0.010242    346.09500
    0.009441    344.58500
    0.008591    342.97200
    0.007713    341.07500
    0.006828    338.92100
    0.005942    336.71500
    0.004980    333.64300
    0.004041    329.90200
    0.003114    324.27600
    0.002304    314.87100
    0.001711    298.23300
    0.001375    278.31000
    0.001307    260.60100
    0.001310    253.20500
    0.001342    248.38100
    0.001379    245.07700
    0.001411    242.83400
    0.001437    240.89000
    0.001457    239.05000
    0.001470    237.17400
    0.001477    235.50200
    0.001478    233.87500
    0.001475    232.43600
    0.001468    230.76000
    0.001458    229.17100
    0.001444    227.54800
    0.001429    226.00600
    0.001412    224.39000
    0.001392    222.72600
    0.001372    221.02500
    0.001346    219.14500
    0.001321    217.30400
    0.001294    215.42300
    0.001269    213.63300
    0.001242    211.83800
    0.001214    210.05700
    0.001190    208.30100
    0.001162    206.55000
    0.001136    204.74100
    0.001110    202.88600
    0.001089    200.94800
    0.001066    198.95000
    0.001045    196.87600
    0.001026    194.74500
    0.001010    192.54000
    0.000996    190.24100
    0.000983    187.83400
    0.000971    185.39100
    0.000958    182.88100
    0.000947    180.32300
    0.000939    177.77400
    0.000932    175.19600
    0.000927    172.66100
    0.000920    170.12500
    0.000917    167.54500
    0.000920    164.97200
    0.000930    162.47100
    0.000943    160.01700
    0.000961    157.64900
    0.000987    155.38000
    0.001015    153.40000
    0.001051    151.36000
    0.001097    149.31000
    0.001152    147.41700
    0.001216    145.41300
    0.001293    143.54700
    0.001386    141.60800
    0.001495    139.47300
    0.001656    137.75800
    0.001833    135.35700
    0.002039    131.13000
    0.002642    122.98200
    0.003916    126.29400
    0.005085    127.76300
    0.006181    128.79100
    0.007293    129.59500
    0.008358    130.86300
    0.009375    131.91700
    0.010219    132.78300
    0.010858    133.51400
    0.011253    133.72600
    0.011662    133.80000
    0.012110    133.87300
    0.012619    134.14200
    0.013042    134.24500
    0.013417    134.39100
    0.013728    134.44300
    0.013989    134.44200
    0.014235    134.41800
    0.014471    134.37100
    0.014694    134.29000
    0.014915    134.21500
    0.015138    134.14300
    0.015364    134.11000
    0.015547    134.11600
    0.015715    134.02300
    0.015846    134.07200
    0.016011    134.13400