GOM-mesh_v9.inp
fixed             ! 24 CHARACTER ALPANUMERIC RUN IDENTIFICATION
 1                ! NFOVER - NONFATAL ERROR OVERRIDE OPTION
 0                ! NABOUT - ABREVIATED OUTPUT OPTION PARAMETER
 1                ! NSCREEN - UNIT 6 OUTPUT OPTION PARAMETER
 0                ! IHOT - HOT START PARAMETER
 2                ! ICS - COORDINATE SYSTEM SELECTION PARAMETER
 0                ! IM - MODEL SELECTION PARAMETER
 1                ! NOLIBF - BOTTOM FRICTION TERM SELECTION PARAM
 2                ! NOLIFA - FINITE AMPLITUDE TERM SELECTION PARAMETER
 1                ! NOLICA - SPATIAL DERIVATIVE CONVECTIVE SELECTION PARAMETER
 1                ! NOLICAT - TIME DERIVATIVE CONVECTIVE TERM SELECTION PARAMETER
 1                ! 0                ! NWP - VARIABLE BOTTOM FRICTION AND LATERAL VISCOSITY OPTION PARAMETER
 1                ! NCOR - VARIABLE CORIOLIS IN SPACE OPTION PARAMETER
 0                ! NTIP - TIDAL POTENTIAL OPTION PARAMETER
 0                ! NWS - WIND STRESS AND BAROMETRIC PRESSURE OPTION PARAMETER
 1                ! NRAMP - RAMP FUNCTION OPTION
 9.81             ! G - ACCELERATION DUE TO GRAVITY - DETERMINES UNITS
 0.005            ! TAU0 - WEIGHTING FACTOR IN GWCE
 2.0              !3.0                ! DT - TIME STEP (IN SECONDS)
 0.00             ! STATIM - STARTING TIME (IN DAYS)
 0.00             ! REFTIM - REFERENCE TIME (IN DAYS)
 60.0             !             ! RNDAY - TOTAL LENGTH OF SIMULATION (IN DAYS)
 10.0              ! DRAMP - DURATION OF RAMP FUNCTION (IN DAYS)
 0.35 0.30 0.35   ! TIME WEIGHTING FACTORS FOR THE GWCE EQUATION
 0.02 10 10 0.05  ! H0, NODEDRYMIN, NODEWETRMP, VELMIN
 -75.2 38.1       !235.0 31.0 ! SLAM0,SFEA0 - CENTER OF CPP PROJECTION (NOT USED IF ICS=1, NTIP=0, NCOR=0)
 0.0025 1.0 10.0 0.33333   ! FFACTOR, HBREAK, FTHETA, FGAMMA 
 5.0   !4.0                     ! ESL - LATERAL EDDY VISCOSITY COEFFICIENT; IGNORED IF NWP =1
 0.0                     ! CORI - CORIOLIS PARAMETER - IGNORED IF NCOR = 1
 0      ! NUMBER OF TIDAL POTENTIAL CONSTITUENTS BEING FORCED
9  ! NBFR: bnd forcing
M2
   0.000140518902500  1.000  0.000
N2
   0.000137879699500  1.000  0.000
S2
   0.000145444104300  1.000  0.000
K1
   0.000072921158360  1.000  0.000
O1
   0.000067597744150  1.000  0.000
K2
   0.000145842317200  1.000  0.000
Q1
   0.000064958541130  1.000  0.000
P1
   0.000072522945970  1.000  0.000
M4
   0.000281037834200  1.000  0.000
M2
    0.484272    355.40100
    0.480883    354.75400
    0.474902    353.97600
    0.467468    353.20100
    0.458315    352.43300
    0.447750    351.75800
    0.442840    351.48400
    0.442463    351.48300
    0.442302    351.48700
    0.442195    351.48900
    0.442116    351.48900
    0.442064    351.48400
    0.442048    351.47300
    0.442085    351.45400
    0.442160    351.42700
    0.442249    351.39300
    0.442367    351.35000
    0.442527    351.30100
    0.442716    351.24100
    0.442959    351.17400
    0.443290    351.09300
    0.443740    350.99800
    0.444299    350.89000
    0.444896    350.77100
    0.445523    350.65000
    0.446167    350.52600
    0.446834    350.40000
    0.447518    350.27300
    0.448255    350.14700
    0.449071    350.02400
    0.449991    349.90200
    0.451412    349.79500
    0.454041    349.70400
    0.463936    349.74900
    0.475921    349.77600
    0.488539    349.81100
    0.500908    349.84900
    0.512517    349.87400
    0.527449    350.05600
    0.542015    350.21100
    0.555342    350.28600
    0.568110    350.36200
    0.579720    350.42900
    0.590322    350.49700
    0.600799    350.59700
    0.609603    350.70700
    0.617629    350.84200
    0.624596    350.98700
    0.630469    351.13500
    0.634844    351.30100
N2
    0.104569    338.37200
    0.103885    337.66900
    0.102706    336.81200
    0.101216    335.95600
    0.099354    335.10400
    0.097159    334.34700
    0.096120    334.03900
    0.096026    334.00600
    0.095984    333.98200
    0.095961    333.95800
    0.095950    333.93400
    0.095951    333.90800
    0.095967    333.87900
    0.096000    333.84400
    0.096049    333.80400
    0.096107    333.75900
    0.096176    333.71000
    0.096260    333.65600
    0.096358    333.59600
    0.096472    333.53100
    0.096612    333.46000
    0.096783    333.38100
    0.096981    333.29400
    0.097189    333.20200
    0.097400    333.11100
    0.097609    333.01900
    0.097816    332.92700
    0.098021    332.83700
    0.098232    332.74900
    0.098455    332.66600
    0.098694    332.58400
    0.099027    332.51700
    0.099591    332.46900
    0.101594    332.58100
    0.104005    332.69900
    0.106532    332.83700
    0.109000    332.98000
    0.111299    333.09700
    0.114271    333.41700
    0.117179    333.71600
    0.119864    333.90900
    0.122451    334.08400
    0.124814    334.23100
    0.126979    334.36400
    0.129126    334.52900
    0.130929    334.68200
    0.132577    334.85500
    0.134009    335.03200
    0.135219    335.20800
    0.136135    335.38600
S2
    0.088493     23.15800
    0.087980     22.35400
    0.087033     21.36500
    0.085801     20.41300
    0.084074     19.49200
    0.081876     18.64800
    0.080931     18.32400
    0.081088     18.33300
    0.081311     18.34400
    0.081560     18.35500
    0.081826     18.36500
    0.082104     18.37300
    0.082394     18.37300
    0.082697     18.36500
    0.083010     18.35000
    0.083327     18.32700
    0.083649     18.29400
    0.083978     18.25400
    0.084312     18.20400
    0.084652     18.14400
    0.084997     18.06900
    0.085346     17.97500
    0.085697     17.86300
    0.086050     17.74100
    0.086390     17.61500
    0.086713     17.48300
    0.087020     17.34700
    0.087312     17.20900
    0.087590     17.07300
    0.087862     16.94100
    0.088136     16.81000
    0.088501     16.69700
    0.089114     16.59800
    0.091315     16.69200
    0.093930     16.78000
    0.096682     16.89500
    0.099406     17.03000
    0.101974     17.15500
    0.105267     17.53500
    0.108530     17.89100
    0.111498     18.12000
    0.114241     18.31800
    0.116664     18.47100
    0.118862     18.59600
    0.121062     18.75100
    0.122956     18.90000
    0.124772     19.07700
    0.126433     19.26600
    0.127867     19.45800
    0.128871     19.65800
K1
    0.079966    175.75000
    0.080608    175.78400
    0.081496    175.80400
    0.082315    175.92600
    0.083011    176.08600
    0.083494    176.17400
    0.083286    176.22800
    0.082851    176.11700
    0.082424    175.99600
    0.082010    175.86600
    0.081618    175.72700
    0.081244    175.57900
    0.080895    175.41800
    0.080573    175.24200
    0.080277    175.05400
    0.080003    174.85700
    0.079748    174.64900
    0.079518    174.43100
    0.079313    174.20400
    0.079138    173.96800
    0.079012    173.72300
    0.078940    173.46900
    0.078921    173.21000
    0.078918    172.94800
    0.078932    172.70300
    0.078961    172.47400
    0.079006    172.26100
    0.079062    172.06700
    0.079132    171.89200
    0.079217    171.73700
    0.079323    171.60100
    0.079448    171.47800
    0.079587    171.35800
    0.079557    171.22100
    0.079458    171.06500
    0.079309    170.89400
    0.079147    170.70400
    0.079063    170.50400
    0.078950    170.45400
    0.078985    170.37000
    0.079132    170.23300
    0.079269    170.11400
    0.079330    169.98600
    0.079297    169.86700
    0.079255    169.81400
    0.079474    169.79700
    0.079977    169.82200
    0.080766    169.86000
    0.081700    169.89400
    0.082449    169.91500
O1
    0.066905    180.75500
    0.067661    180.90400
    0.068542    181.12100
    0.069300    181.37400
    0.069937    181.57600
    0.070433    181.66500
    0.070399    181.74600
    0.070110    181.60600
    0.069830    181.44900
    0.069562    181.28600
    0.069313    181.11800
    0.069078    180.94700
    0.068865    180.76700
    0.068673    180.58000
    0.068498    180.38700
    0.068341    180.19100
    0.068198    180.00000
    0.068073    179.79100
    0.067967    179.58900
    0.067883    179.38900
    0.067837    179.19300
    0.067831    178.99900
    0.067866    178.81500
    0.067916    178.64100
    0.067983    178.49200
    0.068066    178.36200
    0.068166    178.25100
    0.068277    178.15800
    0.068397    178.08400
    0.068518    178.02800
    0.068633    177.98900
    0.068742    177.95900
    0.068856    177.89600
    0.068839    177.52000
    0.068675    177.04700
    0.068416    176.50700
    0.068101    175.90300
    0.067818    175.21400
    0.067279    174.59000
    0.066700    173.95400
    0.066202    173.32000
    0.065803    172.75300
    0.065511    172.21500
    0.065252    171.69400
    0.065006    171.25600
    0.064864    170.79000
    0.064742    170.35700
    0.064622    169.93000
    0.064492    169.52700
    0.064384    169.21000
K2
    0.018962     21.83500
    0.018719     21.04900
    0.018320     19.77600
    0.017939     18.41200
    0.017614     17.41400
    0.017313     17.11600
    0.017236     17.18400
    0.017306     17.24400
    0.017377     17.29300
    0.017451     17.33200
    0.017528     17.36200
    0.017607     17.38200
    0.017690     17.39200
    0.017775     17.38700
    0.017864     17.36900
    0.017954     17.33900
    0.018045     17.29700
    0.018140     17.24500
    0.018236     17.17900
    0.018333     17.10000
    0.018432     17.00300
    0.018529     16.88300
    0.018626     16.74200
    0.018724     16.58900
    0.018816     16.43500
    0.018900     16.27400
    0.018976     16.10500
    0.019048     15.93400
    0.019120     15.77500
    0.019194     15.62900
    0.019269     15.48900
    0.019364     15.36900
    0.019504     15.29800
    0.019992     15.51200
    0.020622     15.88500
    0.021305     16.28400
    0.021985     16.60900
    0.022612     16.81200
    0.023428     17.12700
    0.024222     17.31700
    0.024948     17.43500
    0.025656     17.66800
    0.026309     17.98400
    0.026895     18.34000
    0.027450     18.69700
    0.027869     18.91600
    0.028201     18.98900
    0.028449     18.92300
    0.028653     18.80000
    0.028832     18.81300
Q1
    0.010683    179.46700
    0.010698    179.05400
    0.010758    178.43700
    0.010861    177.90900
    0.010971    177.46700
    0.011051    177.07600
    0.011059    177.05900
    0.011013    176.98300
    0.010968    176.87500
    0.010925    176.75300
    0.010885    176.62400
    0.010847    176.48900
    0.010812    176.34600
    0.010780    176.19500
    0.010751    176.03900
    0.010725    175.88000
    0.010700    175.71700
    0.010679    175.55100
    0.010660    175.38300
    0.010645    175.21300
    0.010635    175.04200
    0.010631    174.86800
    0.010634    174.69700
    0.010639    174.52900
    0.010646    174.37700
    0.010656    174.23500
    0.010668    174.10400
    0.010681    173.98800
    0.010697    173.89300
    0.010713    173.82000
    0.010732    173.76200
    0.010751    173.68900
    0.010764    173.55300
    0.010726    173.26200
    0.010663    173.00600
    0.010575    172.77300
    0.010467    172.54300
    0.010350    172.22700
    0.010188    172.19600
    0.010037    172.10600
    0.009927    171.92400
    0.009844    171.78800
    0.009772    171.67400
    0.009694    171.65300
    0.009618    171.78700
    0.009559    171.84100
    0.009524    171.83500
    0.009516    171.74500
    0.009535    171.64400
    0.009558    171.64200
P1
    0.001762    180.19500
    0.001553    181.81300
    0.001305    189.46100
    0.001016    198.26400
    0.000671    208.97500
    0.000391    228.03600
    0.000320    223.85200
    0.000339    221.23300
    0.000351    220.07300
    0.000358    219.47200
    0.000362    219.08900
    0.000365    218.82800
    0.000367    218.61600
    0.000369    218.43000
    0.000370    218.13000
    0.000371    217.69900
    0.000372    217.14300
    0.000373    216.38600
    0.000373    215.40300
    0.000372    214.27100
    0.000371    213.02100
    0.000368    211.64200
    0.000364    210.04900
    0.000359    207.97800
    0.000351    205.74000
    0.000339    203.48600
    0.000324    201.39100
    0.000307    199.21000
    0.000294    196.54200
    0.000285    193.53700
    0.000280    190.09400
    0.000274    187.25000
    0.000266    188.28500
    0.000303    204.46700
    0.000430    210.84600
    0.000592    210.38300
    0.000755    208.59300
    0.000885    209.91000
    0.001034    210.60600
    0.001210    216.47200
    0.001441    221.17300
    0.001698    220.80100
    0.001969    215.85600
    0.002241    208.64800
    0.002506    201.56400
    0.002666    199.05800
    0.002710    201.27200
    0.002676    208.42800
    0.002671    218.15700
    0.002718    223.69700
M4
    0.007760    247.49200
    0.006803    246.04600
    0.005532    245.19600
    0.004320    243.42200
    0.003019    243.05900
    0.002028    236.59700
    0.001692    228.07300
    0.001677    226.59400
    0.001671    225.61900
    0.001671    224.83000
    0.001674    224.17100
    0.001679    223.61000
    0.001685    223.13800
    0.001693    222.73800
    0.001703    222.40800
    0.001711    222.12000
    0.001719    221.86800
    0.001725    221.67500
    0.001731    221.53500
    0.001736    221.45700
    0.001741    221.44200
    0.001746    221.46500
    0.001751    221.53000
    0.001751    221.64300
    0.001745    221.81400
    0.001735    222.01400
    0.001720    222.22300
    0.001701    222.46800
    0.001677    222.76400
    0.001651    223.07500
    0.001622    223.27700
    0.001599    223.38700
    0.001540    225.74700
    0.001663    231.26800
    0.001886    228.18500
    0.002073    224.05000
    0.002199    220.57900
    0.002225    219.34000
    0.002476    219.50600
    0.002854    214.04200
    0.003203    208.36800
    0.003679    203.05800
    0.004150    197.84700
    0.004534    194.27300
    0.005018    191.02700
    0.005429    187.95100
    0.005804    185.62500
    0.006058    183.76000
    0.006234    181.93400
    0.006222    180.33700
 110.0              ! ANGINN : INNER ANGLE THRESHOLD
 0 20.0 60.0 180       ! NOUTE,TOUTSE,TOUTFE,NSPOOLE:ELEV STATION OUTPUT INFO (UNIT  61)
 0
 0 0.0 10.0  8       ! NOUTV,TOUTSV,TOUTFV,NSPOOLV:VEL STATION OUTPUT INFO (UNIT  62)
 0                   ! TOTAL NUMBER OF VELOCITY RECORDING STATIONS
 0 0.0 10.0  28800   ! NOUTGE,TOUTSGE,TOUTFGE,NSPOOLGE : GLOBAL ELEVATION OUTPUT INFO (UNIT  63)
 0 20.0 60.0  240   ! NOUTGV,TOUTSGV,TOUTFGV,NSPOOLGV : GLOBAL VELOCITY  OUTPUT INFO (UNIT  64)
 38
 STEADY
 0.000000000000000   1.000   0.000
 MN
 0.000002639203296   1.000   0.000
 SM
 0.000004925202335   1.000   0.000
 K1
 0.000072921158358   1.000   0.000
 O1
 0.000067597744151   1.000   0.000
 P1
 0.000072522945975   1.000   0.000
 Q1
 0.000064958541129   1.000   0.000
 SO1
 0.000077846368256   1.000   0.000
 MNS2
 0.000132954511452   1.000   0.000
 2MS2
 0.000135593714748   1.000   0.000
 N2
 0.000137879699487   1.000   0.000
 M2
 0.000140518902509   1.000   0.000
 2MN2
 0.000143158120379   1.000   0.000
 S2
 0.000145444104333   1.000   0.000
 K2
 0.000145842317201   1.000   0.000
 MSN2
 0.000148083322714   1.000   0.000
 2SM2
 0.000150369321753   1.000   0.000
 MO3
 0.000208116668245   1.000   0.000
 SO3/MK3
 0.000213041870580   1.000   0.000
 SK3
 0.000218365285339   1.000   0.000
 N4
 0.000275759427574   1.000   0.000
 3MS4
 0.000276112631831   1.000   0.000
 MN4
 0.000278398630870   1.000   0.000
 M4
 0.000281037834166   1.000   0.000
 3MN4
 0.000283677037462   1.000   0.000
 MS4
 0.000285963036501   1.000   0.000
 2MSN4
 0.000288602239797   1.000   0.000
 2NM6
 0.000416278344658   1.000   0.000
 2MN6
 0.000418917547953   1.000   0.000
 M6
 0.000421556751249   1.000   0.000
 MSN6
 0.000423842750288   1.000   0.000
 2MS6
 0.000426481953584   1.000   0.000
 2SM6
 0.000431407155919   1.000   0.000
 2(MN)8
 0.000556797261741   1.000   0.000
 3MN8
 0.000559436465036   1.000   0.000
 M8
 0.000562075668332   1.000   0.000
 2MSN8
 0.000564361667371   1.000   0.000
 3MS8
 0.000567000870667   1.000   0.000
 20.0 60.0 900  0.0     ! THAS,THAF,NHAINC,FMV - HARMONIC ANALYSIS PARAMETERS
 0 0 1 0                !  0 0 1 0 NHASE,NHASV,NHAGE,NHAGV - CONTROL HARMONIC ANALYSIS AND OUTPUT TO UNITS 51,52,53,54
 0 86400                ! NHSTAR,NHSINC - HOT START FILE GENERATION PARAMETERS
 1  0  1.E-6  25 0      ! ITITER, ISLDIA, CONVCR, ITMAX, ILUMP - ALGEBRAIC SOLUTION PARAMETERS
