i_gsb_v2_bnd9.inp
fixed             ! 24 CHARACTER ALPANUMERIC RUN IDENTIFICATION
 1                ! NFOVER - NONFATAL ERROR OVERRIDE OPTION
 1                ! NABOUT - ABREVIATED OUTPUT OPTION PARAMETER
 1                ! NSCREEN - UNIT 6 OUTPUT OPTION PARAMETER
 0                ! IHOT - HOT START PARAMETER
 2                ! ICS - COORDINATE SYSTEM SELECTION PARAMETER
 0                ! IM - MODEL SELECTION PARAMETER
 1                ! NOLIBF - BOTTOM FRICTION TERM SELECTION PARAM
 2                ! NOLIFA - FINITE AMPLITUDE TERM SELECTION PARAMETER
 1                ! NOLICA - SPATIAL DERIVATIVE CONVECTIVE SELECTION PARAMETER
 1                ! NOLICAT - TIME DERIVATIVE CONVECTIVE TERM SELECTION PARAMETER
 0                !0                ! NWP - VARIABLE BOTTOM FRICTION AND LATERAL VISCOSITY OPTION PARAMETER
 1                ! NCOR - VARIABLE CORIOLIS IN SPACE OPTION PARAMETER
 0                ! NTIP - TIDAL POTENTIAL OPTION PARAMETER
 0                ! NWS - WIND STRESS AND BAROMETRIC PRESSURE OPTION PARAMETER
 1                ! NRAMP - RAMP FUNCTION OPTION
 9.81             ! G - ACCELERATION DUE TO GRAVITY - DETERMINES UNITS
 0.005            ! TAU0 - WEIGHTING FACTOR IN GWCE
 1.0              !2.0              ! DT - TIME STEP (IN SECONDS)
 0.00             ! STATIM - STARTING TIME (IN DAYS)
 0.00             ! REFTIM - REFERENCE TIME (IN DAYS)
 40.0             ! RNDAY - TOTAL LENGTH OF SIMULATION (IN DAYS)
 10.0             ! DRAMP - DURATION OF RAMP FUNCTION (IN DAYS)
 0.35 0.30 0.35   ! TIME WEIGHTING FACTORS FOR THE GWCE EQUATION
 0.02 10 10 0.05  ! H0, NODEDRYMIN, NODEWETRMP, VELMIN
 -73.0 41.1       !235.0 31.0 ! SLAM0,SFEA0 - CENTER OF CPP PROJECTION (NOT USED IF ICS=1, NTIP=0, NCOR=0)
 0.0025 1.0 10.0 0.33333   ! FFACTOR, HBREAK, FTHETA, FGAMMA 
 6.0                     ! ESL - LATERAL EDDY VISCOSITY COEFFICIENT; IGNORED IF NWP =1
 0.0                     ! CORI - CORIOLIS PARAMETER - IGNORED IF NCOR = 1
 0      ! NUMBER OF TIDAL POTENTIAL CONSTITUENTS BEING FORCED
9  ! NBFR: bnd forcing
M2
   0.000140518902500  1.000  0.000
N2
   0.000137879699500  1.000  0.000
S2
   0.000145444104300  1.000  0.000
K1
   0.000072921158360  1.000  0.000
O1
   0.000067597744150  1.000  0.000
K2
   0.000145842317200  1.000  0.000
Q1
   0.000064958541130  1.000  0.000
P1
   0.000072522945970  1.000  0.000
M4
   0.000281037834200  1.000  0.000
M2
    0.596938    352.59300
    0.595470    352.50000
    0.592168    352.37400
    0.588002    352.24500
    0.582537    352.09200
    0.575961    351.89500
    0.569100    351.71000
    0.561311    351.49400
    0.552720    351.28700
    0.544285    351.05700
    0.536295    350.81200
    0.527629    350.55000
    0.519377    350.33100
    0.512400    350.12700
    0.506714    349.97600
    0.502402    349.84100
    0.498570    349.67000
    0.494946    349.51000
    0.491094    349.36800
    0.487310    349.21400
    0.483887    349.04900
    0.479726    348.88900
    0.476671    348.67300
    0.475287    348.57000
    0.473332    348.50600
    0.471291    348.45100
    0.469102    348.42700
    0.466904    348.38500
    0.464834    348.37300
    0.463190    348.37100
    0.461889    348.39300
    0.460729    348.44600
    0.459715    348.52900
    0.458797    348.63400
    0.458021    348.75200
    0.457307    348.87700
    0.456605    349.00800
    0.455785    349.16100
    0.454957    349.32900
    0.454214    349.51800
    0.453598    349.72300
    0.453033    349.94400
    0.452438    350.17600
    0.451827    350.43200
    0.451186    350.69600
    0.450573    350.97200
    0.450126    351.23800
    0.449718    351.50400
    0.449402    351.76300
    0.449189    352.00000
    0.449059    352.20700
    0.449132    352.38000
    0.449362    352.54900
    0.449691    352.73300
    0.450240    352.87000
    0.451002    353.01400
    0.451894    353.18600
    0.453507    353.46500
    0.455205    353.72500
    0.456938    353.97100
    0.458478    354.22300
    0.460026    354.40600
    0.462031    354.59100
    0.463658    354.73600
    0.464705    354.91600
    0.465810    355.13600
    0.466912    355.30500
    0.467761    355.51100
    0.468496    355.66500
    0.468784    355.76900
    0.468640    355.91900
    0.468623    355.99600
    0.468648    356.04100
    0.468218    356.10700
    0.467322    356.14800
    0.466887    356.12700
    0.466328    356.11500
    0.465729    356.11200
    0.465440    356.11400
    0.465288    356.11700
    0.465151    356.11900
    0.465039    356.09600
N2
    0.128024    336.44500
    0.127700    336.32300
    0.127018    336.15500
    0.126187    335.97700
    0.125118    335.76400
    0.123847    335.50200
    0.122524    335.25700
    0.121014    334.98200
    0.119321    334.71000
    0.117656    334.42300
    0.116078    334.12900
    0.114342    333.81000
    0.112671    333.54000
    0.111273    333.30000
    0.110139    333.12900
    0.109301    332.98800
    0.108578    332.81700
    0.107902    332.66000
    0.107178    332.52000
    0.106466    332.36700
    0.105823    332.20900
    0.105012    332.05000
    0.104415    331.84400
    0.104159    331.76900
    0.103780    331.72800
    0.103388    331.69500
    0.102967    331.69000
    0.102554    331.66900
    0.102168    331.67800
    0.101875    331.70400
    0.101657    331.76200
    0.101475    331.85700
    0.101328    331.98700
    0.101208    332.14700
    0.101129    332.32700
    0.101075    332.52200
    0.101035    332.72600
    0.100980    332.95500
    0.100935    333.20300
    0.100921    333.48300
    0.100943    333.78600
    0.100986    334.11200
    0.101025    334.45300
    0.101069    334.81900
    0.101106    335.20100
    0.101148    335.59700
    0.101212    335.98100
    0.101278    336.36700
    0.101343    336.74200
    0.101417    337.09300
    0.101495    337.41000
    0.101598    337.68500
    0.101726    337.95400
    0.101877    338.23000
    0.102050    338.46000
    0.102254    338.70100
    0.102480    338.97200
    0.102890    339.32700
    0.103295    339.66500
    0.103699    339.99200
    0.104080    340.31700
    0.104408    340.58900
    0.104846    340.82500
    0.105186    341.03100
    0.105408    341.28400
    0.105652    341.56400
    0.105866    341.80000
    0.106055    342.05600
    0.106192    342.26000
    0.106223    342.42100
    0.106209    342.62600
    0.106178    342.75900
    0.106154    342.84700
    0.106052    342.95400
    0.105852    343.05500
    0.105722    343.08400
    0.105567    343.12600
    0.105412    343.17300
    0.105338    343.20600
    0.105302    343.23300
    0.105270    343.25700
    0.105234    343.22600
S2
    0.118254     21.13400
    0.118009     20.96300
    0.117511     20.69400
    0.116822     20.40900
    0.115840     20.10500
    0.114588     19.78900
    0.113218     19.53100
    0.111598     19.25500
    0.109758     18.98900
    0.107967     18.68900
    0.106315     18.36500
    0.104531     18.00200
    0.102852     17.68700
    0.101498     17.40300
    0.100461     17.19800
    0.099762     17.03600
    0.099201     16.84400
    0.098692     16.67600
    0.098108     16.53000
    0.097514     16.36600
    0.096972     16.19400
    0.096232     16.01700
    0.095743     15.77300
    0.095672     15.68800
    0.095441     15.63000
    0.095187     15.57000
    0.094909     15.53300
    0.094621     15.46700
    0.094362     15.43200
    0.094207     15.40600
    0.094141     15.40600
    0.094108     15.43700
    0.094109     15.49100
    0.094134     15.55900
    0.094191     15.62900
    0.094266     15.69100
    0.094336     15.74700
    0.094381     15.81600
    0.094426     15.89600
    0.094507     15.99400
    0.094635     16.10900
    0.094785     16.24100
    0.094937     16.38600
    0.095092     16.55800
    0.095242     16.74000
    0.095398     16.93600
    0.095572     17.12500
    0.095747     17.31300
    0.095931     17.49000
    0.096126     17.64400
    0.096324     17.76600
    0.096550     17.85200
    0.096799     17.93400
    0.097066     18.02400
    0.097363     18.07900
    0.097695     18.14900
    0.098048     18.24900
    0.098533     18.44100
    0.099017     18.63200
    0.099501     18.82500
    0.099949     19.02400
    0.100393     19.17400
    0.100916     19.32700
    0.101367     19.45200
    0.101704     19.62200
    0.102040     19.84800
    0.102372     20.04900
    0.102659     20.27300
    0.102907     20.45300
    0.103053     20.59000
    0.103136     20.76500
    0.103205     20.86800
    0.103266     20.94400
    0.103262     21.03700
    0.103161     21.09800
    0.103116     21.10700
    0.103043     21.12800
    0.102962     21.15100
    0.102924     21.17300
    0.102909     21.19000
    0.102895     21.20500
    0.102871     21.17900
K1
    0.081254    171.47100
    0.081018    171.42400
    0.080811    171.44200
    0.080613    171.48000
    0.080439    171.48200
    0.080307    171.41600
    0.080167    171.34900
    0.080036    171.26400
    0.079905    171.18500
    0.079782    171.14500
    0.079658    171.12400
    0.079547    171.07400
    0.079451    170.99700
    0.079356    170.90000
    0.079242    170.78100
    0.079113    170.66400
    0.079008    170.55300
    0.078914    170.44300
    0.078831    170.35800
    0.078755    170.30300
    0.078675    170.27700
    0.078600    170.24700
    0.078490    170.27200
    0.078360    170.25200
    0.078227    170.20200
    0.078067    170.16100
    0.077898    170.09100
    0.077718    170.05000
    0.077493    170.00200
    0.077235    169.96100
    0.076948    169.91300
    0.076653    169.85300
    0.076358    169.78300
    0.076067    169.69700
    0.075822    169.62000
    0.075577    169.55000
    0.075386    169.47400
    0.075229    169.38700
    0.075083    169.29200
    0.074925    169.18100
    0.074720    169.06800
    0.074489    168.96000
    0.074225    168.85300
    0.073918    168.75000
    0.073564    168.65500
    0.073169    168.58300
    0.072774    168.53500
    0.072361    168.48600
    0.071951    168.46200
    0.071560    168.43900
    0.071214    168.41300
    0.070907    168.37100
    0.070613    168.32500
    0.070351    168.28400
    0.070112    168.22700
    0.069864    168.18900
    0.069596    168.18000
    0.069385    168.23100
    0.069214    168.29900
    0.069055    168.37900
    0.068899    168.42300
    0.068833    168.47300
    0.068795    168.47400
    0.068754    168.46600
    0.068687    168.51500
    0.068614    168.60800
    0.068552    168.73300
    0.068502    168.86000
    0.068431    168.99100
    0.068358    169.11600
    0.068312    169.22200
    0.068189    169.34800
    0.068097    169.45600
    0.068047    169.56100
    0.067960    169.65900
    0.067850    169.72700
    0.067799    169.81600
    0.067763    169.90300
    0.067753    169.95300
    0.067738    169.98400
    0.067725    170.01100
    0.067709    170.00000
O1
    0.068786    169.50400
    0.068807    170.25300
    0.068745    171.00700
    0.068639    171.68800
    0.068541    172.31700
    0.068478    172.87900
    0.068402    173.41700
    0.068371    173.90700
    0.068381    174.33600
    0.068366    174.75000
    0.068326    175.10900
    0.068336    175.35400
    0.068328    175.53400
    0.068281    175.66600
    0.068181    175.74900
    0.068038    175.81300
    0.067928    175.89800
    0.067861    175.96000
    0.067832    176.03400
    0.067819    176.12600
    0.067804    176.24400
    0.067813    176.33300
    0.067751    176.52800
    0.067740    176.60200
    0.067762    176.61900
    0.067784    176.64200
    0.067825    176.59400
    0.067879    176.59100
    0.067856    176.54900
    0.067781    176.51100
    0.067628    176.45200
    0.067415    176.36300
    0.067137    176.27000
    0.066769    176.18200
    0.066412    176.13400
    0.065992    176.17500
    0.065597    176.24300
    0.065218    176.34000
    0.064850    176.47300
    0.064470    176.63900
    0.064059    176.85800
    0.063671    177.11500
    0.063290    177.39700
    0.062912    177.70200
    0.062540    178.03700
    0.062176    178.41000
    0.061849    178.80100
    0.061519    179.20800
    0.061220    179.62900
    0.060938    180.04800
    0.060685    180.44400
    0.060449    180.81700
    0.060221    181.18400
    0.060017    181.53500
    0.059817    181.86900
    0.059630    182.22000
    0.059458    182.59600
    0.059379    182.96900
    0.059331    183.31500
    0.059301    183.65000
    0.059267    183.96000
    0.059260    184.25300
    0.059260    184.48200
    0.059245    184.69900
    0.059251    184.92800
    0.059287    185.14400
    0.059343    185.35200
    0.059412    185.54100
    0.059466    185.72700
    0.059513    185.90400
    0.059558    186.05900
    0.059577    186.22800
    0.059604    186.36800
    0.059638    186.49000
    0.059652    186.62100
    0.059635    186.72600
    0.059660    186.81500
    0.059693    186.89600
    0.059711    186.92900
    0.059717    186.94800
    0.059723    186.96500
    0.059709    186.97600
K2
    0.026815     21.34300
    0.026644     21.02900
    0.026267     20.63100
    0.025840     20.28800
    0.025386     19.93900
    0.024969     19.50600
    0.024640     19.10800
    0.024333     18.72100
    0.024028     18.40600
    0.023734     18.10800
    0.023449     17.81300
    0.023115     17.52800
    0.022783     17.29700
    0.022493     17.06700
    0.022252     16.86700
    0.022072     16.62300
    0.021901     16.26900
    0.021745     15.89500
    0.021595     15.54800
    0.021463     15.22500
    0.021369     14.92900
    0.021256     14.67200
    0.021195     14.38600
    0.021214     14.18500
    0.021211     14.09300
    0.021197     14.02400
    0.021153     13.99200
    0.021105     13.94300
    0.021065     13.92900
    0.021046     13.92100
    0.021051     13.94300
    0.021070     14.01700
    0.021101     14.14500
    0.021142     14.31700
    0.021194     14.51700
    0.021257     14.73000
    0.021323     14.94400
    0.021383     15.17200
    0.021443     15.39100
    0.021515     15.59000
    0.021598     15.75700
    0.021685     15.89400
    0.021771     15.99900
    0.021859     16.08900
    0.021952     16.16900
    0.022052     16.24900
    0.022159     16.33000
    0.022267     16.42800
    0.022367     16.55100
    0.022458     16.67800
    0.022537     16.80600
    0.022606     16.92700
    0.022673     17.06100
    0.022737     17.22500
    0.022801     17.35500
    0.022875     17.51000
    0.022960     17.70600
    0.023084     17.95500
    0.023225     18.18400
    0.023375     18.40400
    0.023525     18.60500
    0.023688     18.74800
    0.023869     18.86600
    0.024043     18.94400
    0.024199     19.04800
    0.024345     19.17600
    0.024495     19.25900
    0.024625     19.36800
    0.024740     19.45200
    0.024825     19.50200
    0.024886     19.58400
    0.024951     19.63700
    0.025003     19.65600
    0.025023     19.68600
    0.025027     19.72000
    0.025048     19.70100
    0.025054     19.69700
    0.025054     19.70200
    0.025059     19.70200
    0.025068     19.70100
    0.025075     19.69900
    0.025055     19.68500
Q1
    0.009593    170.29400
    0.009688    170.51300
    0.009799    170.92900
    0.009896    171.37000
    0.009978    171.69600
    0.010046    171.86600
    0.010098    172.01100
    0.010146    172.09500
    0.010191    172.14000
    0.010241    172.27400
    0.010292    172.44200
    0.010346    172.51000
    0.010396    172.54500
    0.010433    172.55000
    0.010449    172.52500
    0.010449    172.50500
    0.010449    172.48100
    0.010446    172.41500
    0.010442    172.36300
    0.010443    172.35600
    0.010447    172.41800
    0.010452    172.47900
    0.010462    172.67300
    0.010473    172.72900
    0.010482    172.73300
    0.010492    172.72500
    0.010496    172.63300
    0.010504    172.57000
    0.010496    172.51100
    0.010478    172.48300
    0.010447    172.46400
    0.010406    172.46100
    0.010356    172.48700
    0.010297    172.55300
    0.010244    172.65300
    0.010193    172.83200
    0.010149    173.01500
    0.010112    173.19800
    0.010080    173.38000
    0.010049    173.56200
    0.010019    173.76800
    0.009993    173.96700
    0.009968    174.16400
    0.009943    174.36300
    0.009918    174.58000
    0.009894    174.83700
    0.009874    175.11600
    0.009851    175.43500
    0.009830    175.79400
    0.009809    176.17700
    0.009791    176.55900
    0.009773    176.93900
    0.009757    177.32600
    0.009744    177.71400
    0.009732    178.09400
    0.009725    178.49100
    0.009724    178.90800
    0.009737    179.29200
    0.009755    179.63100
    0.009779    179.92900
    0.009804    180.16800
    0.009831    180.39300
    0.009857    180.54400
    0.009878    180.70000
    0.009897    180.86400
    0.009916    181.00000
    0.009935    181.13200
    0.009951    181.24000
    0.009964    181.35700
    0.009975    181.46800
    0.009983    181.57500
    0.009990    181.68900
    0.009997    181.77000
    0.009998    181.85100
    0.010002    181.94600
    0.010004    182.00300
    0.010006    182.04100
    0.010008    182.07700
    0.010010    182.08000
    0.010011    182.07100
    0.010012    182.06400
    0.010011    182.08800
P1
    0.002466    226.26400
    0.002453    226.59700
    0.002304    227.95300
    0.002112    228.38700
    0.001943    228.32000
    0.001826    228.10300
    0.001731    226.83000
    0.001636    225.16700
    0.001518    223.26400
    0.001364    220.23600
    0.001191    216.09100
    0.001015    212.21700
    0.000881    209.47100
    0.000800    207.90800
    0.000774    208.03400
    0.000780    208.51700
    0.000781    209.40100
    0.000769    211.11600
    0.000731    212.92100
    0.000667    214.00900
    0.000588    214.34400
    0.000505    215.40900
    0.000425    211.92300
    0.000362    215.54200
    0.000324    218.62600
    0.000297    218.01100
    0.000285    215.26600
    0.000268    206.28500
    0.000275    191.91600
    0.000311    175.98500
    0.000374    162.51300
    0.000454    153.21700
    0.000535    147.30800
    0.000607    143.84400
    0.000650    141.55800
    0.000675    139.85600
    0.000660    139.41500
    0.000621    140.51300
    0.000576    142.89400
    0.000546    146.74300
    0.000550    149.96100
    0.000580    151.55800
    0.000638    151.21900
    0.000726    149.19600
    0.000850    145.71700
    0.001002    141.64200
    0.001167    137.64500
    0.001350    134.14300
    0.001538    131.09300
    0.001720    128.37300
    0.001885    126.15500
    0.002033    124.29300
    0.002171    122.71500
    0.002301    121.40600
    0.002416    120.31600
    0.002531    119.40000
    0.002650    118.62700
    0.002762    117.40600
    0.002862    116.49200
    0.002960    115.74200
    0.003070    115.01000
    0.003155    114.42200
    0.003250    113.92800
    0.003344    113.66000
    0.003439    113.42900
    0.003535    113.11500
    0.003635    112.85900
    0.003728    112.58600
    0.003818    112.35800
    0.003892    112.19500
    0.003950    112.16400
    0.004029    111.95000
    0.004089    111.70900
    0.004117    111.63200
    0.004157    111.50700
    0.004214    111.24300
    0.004239    110.92700
    0.004254    110.65200
    0.004267    110.45500
    0.004284    110.28200
    0.004300    110.13100
    0.004295    110.24400
M4
    0.012663    182.77800
    0.012719    184.50000
    0.012369    186.18000
    0.011902    187.66700
    0.011192    189.28600
    0.010390    190.67000
    0.009522    192.23600
    0.008635    193.96900
    0.007587    195.83700
    0.006647    197.46000
    0.005739    199.83400
    0.004791    203.81900
    0.003996    205.95600
    0.003284    209.26000
    0.002718    212.98600
    0.002183    220.67200
    0.001786    233.97500
    0.001573    249.22200
    0.001522    265.63000
    0.001591    279.50100
    0.001723    289.19900
    0.001869    297.52500
    0.001831    306.16800
    0.002034    311.98500
    0.002328    315.76300
    0.002646    318.61400
    0.002987    320.61000
    0.003298    321.81400
    0.003629    323.20600
    0.004023    324.37800
    0.004513    325.45000
    0.005095    326.08300
    0.005769    326.50500
    0.006548    326.72900
    0.007412    326.72000
    0.008376    326.56200
    0.009385    326.25900
    0.010425    325.86700
    0.011497    325.41400
    0.012713    324.99700
    0.014054    324.66000
    0.015477    324.30700
    0.016961    324.01400
    0.018515    323.75600
    0.020156    323.56900
    0.021874    323.48500
    0.023619    323.43800
    0.025423    323.48600
    0.027273    323.61200
    0.029097    323.79700
    0.030865    323.96900
    0.032603    324.18500
    0.034358    324.47500
    0.036141    324.82000
    0.037914    325.19600
    0.039808    325.72900
    0.041827    326.38300
    0.044103    327.11000
    0.046337    327.79600
    0.048553    328.46100
    0.050693    329.04900
    0.052748    329.68000
    0.054660    330.25400
    0.056455    330.89600
    0.058176    331.67100
    0.059809    332.43200
    0.061400    333.17300
    0.062716    333.76600
    0.063820    334.38400
    0.064712    334.93400
    0.065432    335.37500
    0.066039    335.82300
    0.066506    336.15100
    0.066761    336.44400
    0.067004    336.76700
    0.067176    337.01400
    0.067312    337.24900
    0.067432    337.46600
    0.067503    337.53400
    0.067563    337.56600
    0.067615    337.59700
    0.067490    337.66000
 110.0              ! ANGINN : INNER ANGLE THRESHOLD
 0  20 60.0 360       ! NOUTE,TOUTSE,TOUTFE,NSPOOLE:ELEV STATION OUTPUT INFO (UNIT  61)
 0                   ! TOTAL NUMBER OF ELEVATION RECORDING STATIONS
 0 0.0 10.0  8       ! NOUTV,TOUTSV,TOUTFV,NSPOOLV:VEL STATION OUTPUT INFO (UNIT  62)
 0                   ! TOTAL NUMBER OF VELOCITY RECORDING STATIONS
 0 0.0 10.0  28800   ! NOUTGE,TOUTSGE,TOUTFGE,NSPOOLGE : GLOBAL ELEVATION OUTPUT INFO (UNIT  63)
 0 25.0 27.0  240   ! NOUTGV,TOUTSGV,TOUTFGV,NSPOOLGV : GLOBAL VELOCITY  OUTPUT INFO (UNIT  64)
 38
 STEADY
 0.000000000000000   1.000   0.000
 MN
 0.000002639203296   1.000   0.000
 SM
 0.000004925202335   1.000   0.000
 K1
 0.000072921158358   1.000   0.000
 O1
 0.000067597744151   1.000   0.000
 P1
 0.000072522945975   1.000   0.000
 Q1
 0.000064958541129   1.000   0.000
 SO1
 0.000077846368256   1.000   0.000
 MNS2
 0.000132954511452   1.000   0.000
 2MS2
 0.000135593714748   1.000   0.000
 N2
 0.000137879699487   1.000   0.000
 M2
 0.000140518902509   1.000   0.000
 2MN2
 0.000143158120379   1.000   0.000
 S2
 0.000145444104333   1.000   0.000
 K2
 0.000145842317201   1.000   0.000
 MSN2
 0.000148083322714   1.000   0.000
 2SM2
 0.000150369321753   1.000   0.000
 MO3
 0.000208116668245   1.000   0.000
 SO3/MK3
 0.000213041870580   1.000   0.000
 SK3
 0.000218365285339   1.000   0.000
 N4
 0.000275759427574   1.000   0.000
 3MS4
 0.000276112631831   1.000   0.000
 MN4
 0.000278398630870   1.000   0.000
 M4
 0.000281037834166   1.000   0.000
 3MN4
 0.000283677037462   1.000   0.000
 MS4
 0.000285963036501   1.000   0.000
 2MSN4
 0.000288602239797   1.000   0.000
 2NM6
 0.000416278344658   1.000   0.000
 2MN6
 0.000418917547953   1.000   0.000
 M6
 0.000421556751249   1.000   0.000
 MSN6
 0.000423842750288   1.000   0.000
 2MS6
 0.000426481953584   1.000   0.000
 2SM6
 0.000431407155919   1.000   0.000
 2(MN)8
 0.000556797261741   1.000   0.000
 3MN8
 0.000559436465036   1.000   0.000
 M8
 0.000562075668332   1.000   0.000
 2MSN8
 0.000564361667371   1.000   0.000
 3MS8
 0.000567000870667   1.000   0.000
 10.0  40.0 900  0.0     ! THAS,THAF,NHAINC,FMV - HARMONIC ANALYSIS PARAMETERS
 0 0 1 1                ! NHASE,NHASV,NHAGE,NHAGV - CONTROL HARMONIC ANALYSIS AND OUTPUT TO UNITS 51,52,53,54
 0 86400                ! NHSTAR,NHSINC - HOT START FILE GENERATION PARAMETERS
 1  0  1.E-5  25 0      ! ITITER, ISLDIA, CONVCR, ITMAX, ILUMP - ALGEBRAIC SOLUTION PARAMETERS
